Testing all maps
================
Testing /jet/home/ppareek/15418-Final-Project/scripts/test_scripts/test_dense.sh
----------------------------------- Testing Dense -----------------------------------
Testing 1 Thread and 5,000 samples
Input file: /jet/home/ppareek/15418-Final-Project/maps/tests/density/Dense.txt
Output file: /jet/home/ppareek/15418-Final-Project/paths/tests/density/Dense_1_5000.txt
Start: 0,0
Goal: 999,999
Number of samples: 5000
Number of threads: 1
Loading map from file: /jet/home/ppareek/15418-Final-Project/maps/tests/density/Dense.txt
Created Planner
Using Boost 1.66.0
Planning
Sampling 5000 points
Map width: 1000
Map height: 1000
Generation time: 651336ns
Connection time: 7.16598e+07ns
Starting A*
5001
We have Reached the Goal!!!
All threads exited
Path Found
Query time: 8.95176e+06ns
Time taken: 0.0813113 seconds
Path Nodes: 2208
Path Distance: 2090
Destroyed Planner
Testing 2 Threads and 5,000 samples
Input file: /jet/home/ppareek/15418-Final-Project/maps/tests/density/Dense.txt
Output file: /jet/home/ppareek/15418-Final-Project/paths/tests/density/Dense_2_5000.txt
Start: 0,0
Goal: 999,999
Number of samples: 5000
Number of threads: 2
Loading map from file: /jet/home/ppareek/15418-Final-Project/maps/tests/density/Dense.txt
Created Planner
Using Boost 1.66.0
Planning
Sampling 5000 points
Map width: 1000
Map height: 1000
Generation time: 2.78674e+06ns
Connection time: 6.06867e+07ns
Starting A*
All threads exited
No Path Found
No path found. Planning Failed.
Query failed
Time taken: 0.0882976 seconds
Path Nodes: 0
Path Distance: 0
Destroyed Planner
Testing 4 Threads and 5,000 samples
Input file: /jet/home/ppareek/15418-Final-Project/maps/tests/density/Dense.txt
Output file: /jet/home/ppareek/15418-Final-Project/paths/tests/density/Dense_4_5000.txt
Start: 0,0
Goal: 999,999
Number of samples: 5000
Number of threads: 4
Loading map from file: /jet/home/ppareek/15418-Final-Project/maps/tests/density/Dense.txt
Created Planner
Using Boost 1.66.0
Planning
Sampling 5000 points
Map width: 1000
Map height: 1000
Generation time: 4.5262e+06ns
Connection time: 4.7513e+07ns
Starting A*
All threads exited
No Path Found
No path found. Planning Failed.
Query failed
Time taken: 0.0957979 seconds
Path Nodes: 0
Path Distance: 0
Destroyed Planner
Testing 8 Threads and 5,000 samples
Input file: /jet/home/ppareek/15418-Final-Project/maps/tests/density/Dense.txt
Output file: /jet/home/ppareek/15418-Final-Project/paths/tests/density/Dense_8_5000.txt
Start: 0,0
Goal: 999,999
Number of samples: 5000
Number of threads: 8
Loading map from file: /jet/home/ppareek/15418-Final-Project/maps/tests/density/Dense.txt
Created Planner
Using Boost 1.66.0
Planning
Sampling 5000 points
Map width: 1000
Map height: 1000
Generation time: 1.31764e+07ns
Connection time: 4.14796e+07ns
Starting A*
5001
We have Reached the Goal!!!
All threads exited
Path Found
Query time: 3.60083e+07ns
Time taken: 0.0907047 seconds
Path Nodes: 2407
Path Distance: 2282
Destroyed Planner
Testing 16 Threads and 5,000 samples
Input file: /jet/home/ppareek/15418-Final-Project/maps/tests/density/Dense.txt
Output file: /jet/home/ppareek/15418-Final-Project/paths/tests/density/Dense_16_5000.txt
Start: 0,0
Goal: 999,999
Number of samples: 5000
Number of threads: 16
Loading map from file: /jet/home/ppareek/15418-Final-Project/maps/tests/density/Dense.txt
Created Planner
Using Boost 1.66.0
Planning
Sampling 5000 points
Map width: 1000
Map height: 1000
Generation time: 1.04834e+07ns
Connection time: 2.98878e+07ns
Starting A*
5001
We have Reached the Goal!!!
All threads exited
Path Found
Query time: 2.36858e+07ns
Time taken: 0.0641014 seconds
Path Nodes: 2385
Path Distance: 2260
Destroyed Planner
Testing 32 Threads and 5,000 samples
Input file: /jet/home/ppareek/15418-Final-Project/maps/tests/density/Dense.txt
Output file: /jet/home/ppareek/15418-Final-Project/paths/tests/density/Dense_32_5000.txt
Start: 0,0
Goal: 999,999
Number of samples: 5000
Number of threads: 32
Loading map from file: /jet/home/ppareek/15418-Final-Project/maps/tests/density/Dense.txt
Created Planner
Using Boost 1.66.0
Planning
Sampling 5000 points
Map width: 1000
Map height: 1000
Generation time: 1.49448e+07ns
Connection time: 2.34747e+07ns
Starting A*
All threads exited
No Path Found
No path found. Planning Failed.
Query failed
Time taken: 0.0533062 seconds
Path Nodes: 0
Path Distance: 0
Destroyed Planner
Testing 64 Threads and 5,000 samples
Input file: /jet/home/ppareek/15418-Final-Project/maps/tests/density/Dense.txt
Output file: /jet/home/ppareek/15418-Final-Project/paths/tests/density/Dense_64_5000.txt
Start: 0,0
Goal: 999,999
Number of samples: 5000
Number of threads: 64
Loading map from file: /jet/home/ppareek/15418-Final-Project/maps/tests/density/Dense.txt
Created Planner
Using Boost 1.66.0
Planning
Sampling 5000 points
Map width: 1000
Map height: 1000
Generation time: 2.28116e+07ns
Connection time: 3.00731e+07ns
Starting A*
5001
We have Reached the Goal!!!
All threads exited
Path Found
Query time: 1.29019e+07ns
Time taken: 0.0658861 seconds
Path Nodes: 2267
Path Distance: 2150
Destroyed Planner
Testing 128 Threads and 5,000 samples
Input file: /jet/home/ppareek/15418-Final-Project/maps/tests/density/Dense.txt
Output file: /jet/home/ppareek/15418-Final-Project/paths/tests/density/Dense_128_5000.txt
Start: 0,0
Goal: 999,999
Number of samples: 5000
Number of threads: 128
Loading map from file: /jet/home/ppareek/15418-Final-Project/maps/tests/density/Dense.txt
Created Planner
Using Boost 1.66.0
Planning
Sampling 5000 points
Map width: 1000
Map height: 1000
Generation time: 4.1204e+07ns
Connection time: 3.76148e+07ns
Starting A*
5001
We have Reached the Goal!!!
All threads exited
Path Found
Query time: 2.67512e+08ns
Time taken: 0.346651 seconds
Path Nodes: 2304
Path Distance: 2186
Destroyed Planner
--------------------------------------------------------------------------------
Testing 1 Threads and 10,000 samples
Input file: /jet/home/ppareek/15418-Final-Project/maps/tests/density/Dense.txt
Output file: /jet/home/ppareek/15418-Final-Project/paths/tests/density/Dense_1_110000.txt
Start: 0,0
Goal: 999,999
Number of samples: 10000
Number of threads: 1
Loading map from file: /jet/home/ppareek/15418-Final-Project/maps/tests/density/Dense.txt
Created Planner
Using Boost 1.66.0
Planning
Sampling 10000 points
Map width: 1000
Map height: 1000
Generation time: 1.63097e+06ns
Connection time: 2.92439e+08ns
Starting A*
10001
We have Reached the Goal!!!
All threads exited
Path Found
Query time: 3.98131e+07ns
Time taken: 0.333952 seconds
Path Nodes: 2108
Path Distance: 1998
Destroyed Planner
Testing 2 Threads and 10,000 samples
Input file: /jet/home/ppareek/15418-Final-Project/maps/tests/density/Dense.txt
Output file: /jet/home/ppareek/15418-Final-Project/paths/tests/density/Dense_2_110000.txt
Start: 0,0
Goal: 999,999
Number of samples: 10000
Number of threads: 2
Loading map from file: /jet/home/ppareek/15418-Final-Project/maps/tests/density/Dense.txt
Created Planner
Using Boost 1.66.0
Planning
Sampling 10000 points
Map width: 1000
Map height: 1000
Generation time: 5.38887e+06ns
Connection time: 2.45386e+08ns
Starting A*
10001
We have Reached the Goal!!!
All threads exited
Path Found
Query time: 8.50618e+07ns
Time taken: 0.335906 seconds
Path Nodes: 2118
Path Distance: 2008
Destroyed Planner
Testing 4 Threads and 10,000 samples
Input file: /jet/home/ppareek/15418-Final-Project/maps/tests/density/Dense.txt
Output file: /jet/home/ppareek/15418-Final-Project/paths/tests/density/Dense_4_110000.txt
Start: 0,0
Goal: 999,999
Number of samples: 10000
Number of threads: 4
Loading map from file: /jet/home/ppareek/15418-Final-Project/maps/tests/density/Dense.txt
Created Planner
Using Boost 1.66.0
Planning
Sampling 10000 points
Map width: 1000
Map height: 1000
Generation time: 1.07176e+07ns
Connection time: 1.80992e+08ns
Starting A*
10001
We have Reached the Goal!!!
All threads exited
Path Found
Query time: 1.30272e+08ns
Time taken: 0.322034 seconds
Path Nodes: 2108
Path Distance: 1998
Destroyed Planner
Testing 8 Threads and 10,000 samples
Input file: /jet/home/ppareek/15418-Final-Project/maps/tests/density/Dense.txt
Output file: /jet/home/ppareek/15418-Final-Project/paths/tests/density/Dense_8_110000.txt
Start: 0,0
Goal: 999,999
Number of samples: 10000
Number of threads: 8
Loading map from file: /jet/home/ppareek/15418-Final-Project/maps/tests/density/Dense.txt
Created Planner
Using Boost 1.66.0
Planning
Sampling 10000 points
Map width: 1000
Map height: 1000
Generation time: 2.27001e+07ns
Connection time: 1.56293e+08ns
Starting A*
10001
We have Reached the Goal!!!
All threads exited
Path Found
Query time: 1.32652e+08ns
Time taken: 0.311697 seconds
Path Nodes: 2121
Path Distance: 2012
Destroyed Planner
Testing 16 Threads and 10,000 samples
Input file: /jet/home/ppareek/15418-Final-Project/maps/tests/density/Dense.txt
Output file: /jet/home/ppareek/15418-Final-Project/paths/tests/density/Dense_16_110000.txt
Start: 0,0
Goal: 999,999
Number of samples: 10000
Number of threads: 16
Loading map from file: /jet/home/ppareek/15418-Final-Project/maps/tests/density/Dense.txt
Created Planner
Using Boost 1.66.0
Planning
Sampling 10000 points
Map width: 1000
Map height: 1000
Generation time: 1.76823e+07ns
Connection time: 1.49492e+08ns
Starting A*
10001
We have Reached the Goal!!!
All threads exited
Path Found
Query time: 8.53169e+07ns
Time taken: 0.252561 seconds
Path Nodes: 2153
Path Distance: 2036
Destroyed Planner
Testing 32 Threads and 10,000 samples
Input file: /jet/home/ppareek/15418-Final-Project/maps/tests/density/Dense.txt
Output file: /jet/home/ppareek/15418-Final-Project/paths/tests/density/Dense_32_110000.txt
Start: 0,0
Goal: 999,999
Number of samples: 10000
Number of threads: 32
Loading map from file: /jet/home/ppareek/15418-Final-Project/maps/tests/density/Dense.txt
Created Planner
Using Boost 1.66.0
Planning
Sampling 10000 points
Map width: 1000
Map height: 1000
Generation time: 1.86362e+07ns
Connection time: 1.01114e+08ns
Starting A*
10001
We have Reached the Goal!!!
All threads exited
Path Found
Query time: 6.17748e+07ns
Time taken: 0.181593 seconds
Path Nodes: 2119
Path Distance: 2010
Destroyed Planner
Testing 64 Threads and 10,000 samples
Input file: /jet/home/ppareek/15418-Final-Project/maps/tests/density/Dense.txt
Output file: /jet/home/ppareek/15418-Final-Project/paths/tests/density/Dense_64_110000.txt
Start: 0,0
Goal: 999,999
Number of samples: 10000
Number of threads: 64
Loading map from file: /jet/home/ppareek/15418-Final-Project/maps/tests/density/Dense.txt
Created Planner
Using Boost 1.66.0
Planning
Sampling 10000 points
Map width: 1000
Map height: 1000
Generation time: 4.08102e+07ns
Connection time: 1.03019e+08ns
Starting A*
10001
We have Reached the Goal!!!
All threads exited
Path Found
Query time: 4.07753e+07ns
Time taken: 0.184664 seconds
Path Nodes: 2166
Path Distance: 2056
Destroyed Planner
Testing 128 Threads and 10,000 samples
Input file: /jet/home/ppareek/15418-Final-Project/maps/tests/density/Dense.txt
Output file: /jet/home/ppareek/15418-Final-Project/paths/tests/density/Dense_128_110000.txt
Start: 0,0
Goal: 999,999
Number of samples: 10000
Number of threads: 128
Loading map from file: /jet/home/ppareek/15418-Final-Project/maps/tests/density/Dense.txt
Created Planner
Using Boost 1.66.0
Planning
Sampling 10000 points
Map width: 1000
Map height: 1000
Generation time: 5.58785e+07ns
Connection time: 1.2266e+08ns
Starting A*
10001
We have Reached the Goal!!!
All threads exited
Path Found
Query time: 9.83231e+07ns
Time taken: 0.276974 seconds
Path Nodes: 2180
Path Distance: 2070
Destroyed Planner
--------------------------------------------------------------------------------
Testing 1 Threads and 20,000 samples
Input file: /jet/home/ppareek/15418-Final-Project/maps/tests/density/Dense.txt
Output file: /jet/home/ppareek/15418-Final-Project/paths/tests/density/Dense_1_20000.txt
Start: 0,0
Goal: 999,999
Number of samples: 20000
Number of threads: 1
Loading map from file: /jet/home/ppareek/15418-Final-Project/maps/tests/density/Dense.txt
Created Planner
Using Boost 1.66.0
Planning
Sampling 20000 points
Map width: 1000
Map height: 1000
Generation time: 3.10032e+06ns
Connection time: 1.17505e+09ns
Starting A*
20001
We have Reached the Goal!!!
All threads exited
Path Found
Query time: 1.05603e+08ns
Time taken: 1.28385 seconds
Path Nodes: 2118
Path Distance: 1998
Destroyed Planner
Testing 2 Threads and 20,000 samples
Input file: /jet/home/ppareek/15418-Final-Project/maps/tests/density/Dense.txt
Output file: /jet/home/ppareek/15418-Final-Project/paths/tests/density/Dense_2_20000.txt
Start: 0,0
Goal: 999,999
Number of samples: 20000
Number of threads: 2
Loading map from file: /jet/home/ppareek/15418-Final-Project/maps/tests/density/Dense.txt
Created Planner
Using Boost 1.66.0
Planning
Sampling 20000 points
Map width: 1000
Map height: 1000
Generation time: 1.03317e+07ns
Connection time: 9.54451e+08ns
Starting A*
20001
We have Reached the Goal!!!
All threads exited
Path Found
Query time: 4.23908e+08ns
Time taken: 1.38878 seconds
Path Nodes: 2110
Path Distance: 1998
Destroyed Planner
Testing 4 Threads and 20,000 samples
Input file: /jet/home/ppareek/15418-Final-Project/maps/tests/density/Dense.txt
Output file: /jet/home/ppareek/15418-Final-Project/paths/tests/density/Dense_4_20000.txt
Start: 0,0
Goal: 999,999
Number of samples: 20000
Number of threads: 4
Loading map from file: /jet/home/ppareek/15418-Final-Project/maps/tests/density/Dense.txt
Created Planner
Using Boost 1.66.0
Planning
Sampling 20000 points
Map width: 1000
Map height: 1000
Generation time: 1.98e+07ns
Connection time: 7.23223e+08ns
Starting A*
20001
We have Reached the Goal!!!
All threads exited
Path Found
Query time: 7.24389e+08ns
Time taken: 1.4675 seconds
Path Nodes: 2109
Path Distance: 1998
Destroyed Planner
Testing 8 Threads and 20,000 samples
Input file: /jet/home/ppareek/15418-Final-Project/maps/tests/density/Dense.txt
Output file: /jet/home/ppareek/15418-Final-Project/paths/tests/density/Dense_8_20000.txt
Start: 0,0
Goal: 999,999
Number of samples: 20000
Number of threads: 8
Loading map from file: /jet/home/ppareek/15418-Final-Project/maps/tests/density/Dense.txt
Created Planner
Using Boost 1.66.0
Planning
Sampling 20000 points
Map width: 1000
Map height: 1000
Generation time: 4.19256e+07ns
Connection time: 5.9968e+08ns
Starting A*
20001
We have Reached the Goal!!!
All threads exited
Path Found
Query time: 4.88035e+08ns
Time taken: 1.12973 seconds
Path Nodes: 2111
Path Distance: 1998
Destroyed Planner
Testing 16 Threads and 20,000 samples
Input file: /jet/home/ppareek/15418-Final-Project/maps/tests/density/Dense.txt
Output file: /jet/home/ppareek/15418-Final-Project/paths/tests/density/Dense_16_20000.txt
Start: 0,0
Goal: 999,999
Number of samples: 20000
Number of threads: 16
Loading map from file: /jet/home/ppareek/15418-Final-Project/maps/tests/density/Dense.txt
Created Planner
Using Boost 1.66.0
Planning
Sampling 20000 points
Map width: 1000
Map height: 1000
Generation time: 3.45578e+07ns
Connection time: 5.88915e+08ns
Starting A*
20001
We have Reached the Goal!!!
All threads exited
Path Found
Query time: 3.06563e+08ns
Time taken: 0.930107 seconds
Path Nodes: 2110
Path Distance: 1998
Destroyed Planner
Testing 32 Threads and 20,000 samples
Input file: /jet/home/ppareek/15418-Final-Project/maps/tests/density/Dense.txt
Output file: /jet/home/ppareek/15418-Final-Project/paths/tests/density/Dense_32_20000.txt
Start: 0,0
Goal: 999,999
Number of samples: 20000
Number of threads: 32
Loading map from file: /jet/home/ppareek/15418-Final-Project/maps/tests/density/Dense.txt
Created Planner
Using Boost 1.66.0
Planning
Sampling 20000 points
Map width: 1000
Map height: 1000
Generation time: 3.88647e+07ns
Connection time: 4.02925e+08ns
Starting A*
20001
We have Reached the Goal!!!
All threads exited
Path Found
Query time: 2.15084e+08ns
Time taken: 0.656955 seconds
Path Nodes: 2108
Path Distance: 1998
Destroyed Planner
Testing 64 Threads and 20,000 samples
Input file: /jet/home/ppareek/15418-Final-Project/maps/tests/density/Dense.txt
Output file: /jet/home/ppareek/15418-Final-Project/paths/tests/density/Dense_64_20000.txt
Start: 0,0
Goal: 999,999
Number of samples: 20000
Number of threads: 64
Loading map from file: /jet/home/ppareek/15418-Final-Project/maps/tests/density/Dense.txt
Created Planner
Using Boost 1.66.0
Planning
Sampling 20000 points
Map width: 1000
Map height: 1000
Generation time: 4.85815e+07ns
Connection time: 3.64369e+08ns
Starting A*
20001
We have Reached the Goal!!!
All threads exited
Path Found
Query time: 1.28511e+08ns
Time taken: 0.541544 seconds
Path Nodes: 2106
Path Distance: 2000
Destroyed Planner
Testing 128 Threads and 20,000 samples
Input file: /jet/home/ppareek/15418-Final-Project/maps/tests/density/Dense.txt
Output file: /jet/home/ppareek/15418-Final-Project/paths/tests/density/Dense_128_20000.txt
Start: 0,0
Goal: 999,999
Number of samples: 20000
Number of threads: 128
Loading map from file: /jet/home/ppareek/15418-Final-Project/maps/tests/density/Dense.txt
Created Planner
Using Boost 1.66.0
Planning
Sampling 20000 points
Map width: 1000
Map height: 1000
Generation time: 5.52435e+07ns
Connection time: 5.98528e+08ns
Starting A*
20001
We have Reached the Goal!!!
All threads exited
Path Found
Query time: 1.36627e+08ns
Time taken: 0.791153 seconds
Path Nodes: 2098
Path Distance: 1998
Destroyed Planner
--------------------------------------------------------------------------------
Done.
Testing /jet/home/ppareek/15418-Final-Project/scripts/test_scripts/test_empty.sh
----------------------------------- Testing Empty -----------------------------------
Testing 1 Thread and 5,000 samples
Input file: /jet/home/ppareek/15418-Final-Project/maps/tests/density/Empty.txt
Output file: /jet/home/ppareek/15418-Final-Project/paths/tests/density/Empty_1_5000.txt
Start: 0,0
Goal: 999,999
Number of samples: 5000
Number of threads: 1
Loading map from file: /jet/home/ppareek/15418-Final-Project/maps/tests/density/Empty.txt
Created Planner
Using Boost 1.66.0
Planning
Sampling 5000 points
Map width: 1000
Map height: 1000
Generation time: 500732ns
Connection time: 6.81595e+07ns
Starting A*
All threads exited
No Path Found
No path found. Planning Failed.
Query failed
Time taken: 0.0687368 seconds
Path Nodes: 0
Path Distance: 0
Destroyed Planner
Testing 2 Threads and 5,000 samples
Input file: /jet/home/ppareek/15418-Final-Project/maps/tests/density/Empty.txt
Output file: /jet/home/ppareek/15418-Final-Project/paths/tests/density/Empty_2_5000.txt
Start: 0,0
Goal: 999,999
Number of samples: 5000
Number of threads: 2
Loading map from file: /jet/home/ppareek/15418-Final-Project/maps/tests/density/Empty.txt
Created Planner
Using Boost 1.66.0
Planning
Sampling 5000 points
Map width: 1000
Map height: 1000
Generation time: 1.48863e+06ns
Connection time: 4.69793e+07ns
Starting A*
All threads exited
No Path Found
No path found. Planning Failed.
Query failed
Time taken: 0.0485614 seconds
Path Nodes: 0
Path Distance: 0
Destroyed Planner
Testing 4 Threads and 5,000 samples
Input file: /jet/home/ppareek/15418-Final-Project/maps/tests/density/Empty.txt
Output file: /jet/home/ppareek/15418-Final-Project/paths/tests/density/Empty_4_5000.txt
Start: 0,0
Goal: 999,999
Number of samples: 5000
Number of threads: 4
Loading map from file: /jet/home/ppareek/15418-Final-Project/maps/tests/density/Empty.txt
Created Planner
Using Boost 1.66.0
Planning
Sampling 5000 points
Map width: 1000
Map height: 1000
Generation time: 2.909e+06ns
Connection time: 3.24238e+07ns
Starting A*
All threads exited
No Path Found
No path found. Planning Failed.
Query failed
Time taken: 0.0354363 seconds
Path Nodes: 0
Path Distance: 0
Destroyed Planner
Testing 8 Threads and 5,000 samples
Input file: /jet/home/ppareek/15418-Final-Project/maps/tests/density/Empty.txt
Output file: /jet/home/ppareek/15418-Final-Project/paths/tests/density/Empty_8_5000.txt
Start: 0,0
Goal: 999,999
Number of samples: 5000
Number of threads: 8
Loading map from file: /jet/home/ppareek/15418-Final-Project/maps/tests/density/Empty.txt
Created Planner
Using Boost 1.66.0
Planning
Sampling 5000 points
Map width: 1000
Map height: 1000
Generation time: 4.85635e+06ns
Connection time: 2.41014e+07ns
Starting A*
All threads exited
No Path Found
No path found. Planning Failed.
Query failed
Time taken: 0.0290482 seconds
Path Nodes: 0
Path Distance: 0
Destroyed Planner
Testing 16 Threads and 5,000 samples
Input file: /jet/home/ppareek/15418-Final-Project/maps/tests/density/Empty.txt
Output file: /jet/home/ppareek/15418-Final-Project/paths/tests/density/Empty_16_5000.txt
Start: 0,0
Goal: 999,999
Number of samples: 5000
Number of threads: 16
Loading map from file: /jet/home/ppareek/15418-Final-Project/maps/tests/density/Empty.txt
Created Planner
Using Boost 1.66.0
Planning
Sampling 5000 points
Map width: 1000
Map height: 1000
Generation time: 7.00049e+06ns
Connection time: 1.80289e+07ns
Starting A*
5001
We have Reached the Goal!!!
All threads exited
Path Found
Query time: 1.1253e+07ns
Time taken: 0.0363212 seconds
Path Nodes: 2476
Path Distance: 2348
Destroyed Planner
Testing 32 Threads and 5,000 samples
Input file: /jet/home/ppareek/15418-Final-Project/maps/tests/density/Empty.txt
Output file: /jet/home/ppareek/15418-Final-Project/paths/tests/density/Empty_32_5000.txt
Start: 0,0
Goal: 999,999
Number of samples: 5000
Number of threads: 32
Loading map from file: /jet/home/ppareek/15418-Final-Project/maps/tests/density/Empty.txt
Created Planner
Using Boost 1.66.0
Planning
Sampling 5000 points
Map width: 1000
Map height: 1000
Generation time: 7.7871e+06ns
Connection time: 1.36512e+07ns
Starting A*
All threads exited
No Path Found
No path found. Planning Failed.
Query failed
Time taken: 0.0215862 seconds
Path Nodes: 0
Path Distance: 0
Destroyed Planner
Testing 64 Threads and 5,000 samples
Input file: /jet/home/ppareek/15418-Final-Project/maps/tests/density/Empty.txt
Output file: /jet/home/ppareek/15418-Final-Project/paths/tests/density/Empty_64_5000.txt
Start: 0,0
Goal: 999,999
Number of samples: 5000
Number of threads: 64
Loading map from file: /jet/home/ppareek/15418-Final-Project/maps/tests/density/Empty.txt
Created Planner
Using Boost 1.66.0
Planning
Sampling 5000 points
Map width: 1000
Map height: 1000
Generation time: 2.36757e+07ns
Connection time: 2.2295e+07ns
Starting A*
All threads exited
No Path Found
No path found. Planning Failed.
Query failed
Time taken: 0.0888761 seconds
Path Nodes: 0
Path Distance: 0
Destroyed Planner
Testing 128 Threads and 5,000 samples
Input file: /jet/home/ppareek/15418-Final-Project/maps/tests/density/Empty.txt
Output file: /jet/home/ppareek/15418-Final-Project/paths/tests/density/Empty_128_5000.txt
Start: 0,0
Goal: 999,999
Number of samples: 5000
Number of threads: 128
Loading map from file: /jet/home/ppareek/15418-Final-Project/maps/tests/density/Empty.txt
Created Planner
Using Boost 1.66.0
Planning
Sampling 5000 points
Map width: 1000
Map height: 1000
Generation time: 3.06523e+07ns
Connection time: 1.76955e+07ns
Starting A*
5001
We have Reached the Goal!!!
All threads exited
Path Found
Query time: 4.54878e+08ns
Time taken: 0.503279 seconds
Path Nodes: 2307
Path Distance: 2190
Destroyed Planner
--------------------------------------------------------------------------------
Testing 1 Threads and 10,000 samples
Input file: /jet/home/ppareek/15418-Final-Project/maps/tests/density/Empty.txt
Output file: /jet/home/ppareek/15418-Final-Project/paths/tests/density/Empty_1_10000.txt
Start: 0,0
Goal: 999,999
Number of samples: 10000
Number of threads: 1
Loading map from file: /jet/home/ppareek/15418-Final-Project/maps/tests/density/Empty.txt
Created Planner
Using Boost 1.66.0
Planning
Sampling 10000 points
Map width: 1000
Map height: 1000
Generation time: 978912ns
Connection time: 2.74835e+08ns
Starting A*
10001
We have Reached the Goal!!!
All threads exited
Path Found
Query time: 7.08513e+06ns
Time taken: 0.282972 seconds
Path Nodes: 2111
Path Distance: 1998
Destroyed Planner
Testing 2 Threads and 10,000 samples
Input file: /jet/home/ppareek/15418-Final-Project/maps/tests/density/Empty.txt
Output file: /jet/home/ppareek/15418-Final-Project/paths/tests/density/Empty_2_10000.txt
Start: 0,0
Goal: 999,999
Number of samples: 10000
Number of threads: 2
Loading map from file: /jet/home/ppareek/15418-Final-Project/maps/tests/density/Empty.txt
Created Planner
Using Boost 1.66.0
Planning
Sampling 10000 points
Map width: 1000
Map height: 1000
Generation time: 3.30647e+06ns
Connection time: 1.86981e+08ns
Starting A*
10001
We have Reached the Goal!!!
All threads exited
Path Found
Query time: 4.92277e+07ns
Time taken: 0.239575 seconds
Path Nodes: 2175
Path Distance: 2064
Destroyed Planner
Testing 4 Threads and 10,000 samples
Input file: /jet/home/ppareek/15418-Final-Project/maps/tests/density/Empty.txt
Output file: /jet/home/ppareek/15418-Final-Project/paths/tests/density/Empty_4_10000.txt
Start: 0,0
Goal: 999,999
Number of samples: 10000
Number of threads: 4
Loading map from file: /jet/home/ppareek/15418-Final-Project/maps/tests/density/Empty.txt
Created Planner
Using Boost 1.66.0
Planning
Sampling 10000 points
Map width: 1000
Map height: 1000
Generation time: 6.14853e+06ns
Connection time: 1.28577e+08ns
Starting A*
10001
We have Reached the Goal!!!
All threads exited
Path Found
Query time: 8.29069e+07ns
Time taken: 0.217717 seconds
Path Nodes: 2105
Path Distance: 1998
Destroyed Planner
Testing 8 Threads and 10,000 samples
Input file: /jet/home/ppareek/15418-Final-Project/maps/tests/density/Empty.txt
Output file: /jet/home/ppareek/15418-Final-Project/paths/tests/density/Empty_8_10000.txt
Start: 0,0
Goal: 999,999
Number of samples: 10000
Number of threads: 8
Loading map from file: /jet/home/ppareek/15418-Final-Project/maps/tests/density/Empty.txt
Created Planner
Using Boost 1.66.0
Planning
Sampling 10000 points
Map width: 1000
Map height: 1000
Generation time: 7.46398e+06ns
Connection time: 1.0138e+08ns
Starting A*
10001
We have Reached the Goal!!!
All threads exited
Path Found
Query time: 5.30245e+07ns
Time taken: 0.161914 seconds
Path Nodes: 2110
Path Distance: 1998
Destroyed Planner
Testing 16 Threads and 10,000 samples
Input file: /jet/home/ppareek/15418-Final-Project/maps/tests/density/Empty.txt
Output file: /jet/home/ppareek/15418-Final-Project/paths/tests/density/Empty_16_10000.txt
Start: 0,0
Goal: 999,999
Number of samples: 10000
Number of threads: 16
Loading map from file: /jet/home/ppareek/15418-Final-Project/maps/tests/density/Empty.txt
Created Planner
Using Boost 1.66.0
Planning
Sampling 10000 points
Map width: 1000
Map height: 1000
Generation time: 1.01629e+07ns
Connection time: 8.29313e+07ns
Starting A*
10001
We have Reached the Goal!!!
All threads exited
Path Found
Query time: 5.49271e+07ns
Time taken: 0.148091 seconds
Path Nodes: 2120
Path Distance: 2010
Destroyed Planner
Testing 32 Threads and 10,000 samples
Input file: /jet/home/ppareek/15418-Final-Project/maps/tests/density/Empty.txt
Output file: /jet/home/ppareek/15418-Final-Project/paths/tests/density/Empty_32_10000.txt
Start: 0,0
Goal: 999,999
Number of samples: 10000
Number of threads: 32
Loading map from file: /jet/home/ppareek/15418-Final-Project/maps/tests/density/Empty.txt
Created Planner
Using Boost 1.66.0
Planning
Sampling 10000 points
Map width: 1000
Map height: 1000
Generation time: 1.47946e+07ns
Connection time: 6.1631e+07ns
Starting A*
10001
We have Reached the Goal!!!
All threads exited
Path Found
Query time: 2.58591e+07ns
Time taken: 0.102337 seconds
Path Nodes: 2171
Path Distance: 2060
Destroyed Planner
Testing 64 Threads and 10,000 samples
Input file: /jet/home/ppareek/15418-Final-Project/maps/tests/density/Empty.txt
Output file: /jet/home/ppareek/15418-Final-Project/paths/tests/density/Empty_64_10000.txt
Start: 0,0
Goal: 999,999
Number of samples: 10000
Number of threads: 64
Loading map from file: /jet/home/ppareek/15418-Final-Project/maps/tests/density/Empty.txt
Created Planner
Using Boost 1.66.0
Planning
Sampling 10000 points
Map width: 1000
Map height: 1000
Generation time: 1.72215e+07ns
Connection time: 4.76816e+07ns
Starting A*
10001
We have Reached the Goal!!!
All threads exited
Path Found
Query time: 1.78398e+07ns
Time taken: 0.0828087 seconds
Path Nodes: 2121
Path Distance: 2012
Destroyed Planner
Testing 128 Threads and 10,000 samples
Input file: /jet/home/ppareek/15418-Final-Project/maps/tests/density/Empty.txt
Output file: /jet/home/ppareek/15418-Final-Project/paths/tests/density/Empty_128_10000.txt
Start: 0,0
Goal: 999,999
Number of samples: 10000
Number of threads: 128
Loading map from file: /jet/home/ppareek/15418-Final-Project/maps/tests/density/Empty.txt
Created Planner
Using Boost 1.66.0
Planning
Sampling 10000 points
Map width: 1000
Map height: 1000
Generation time: 3.64192e+07ns
Connection time: 6.53423e+07ns
Starting A*
10001
We have Reached the Goal!!!
All threads exited
Path Found
Query time: 1.71885e+08ns
Time taken: 0.273723 seconds
Path Nodes: 2139
Path Distance: 2034
Destroyed Planner
--------------------------------------------------------------------------------
Testing 1 Threads and 20,000 samples
Input file: /jet/home/ppareek/15418-Final-Project/maps/tests/density/Empty.txt
Output file: /jet/home/ppareek/15418-Final-Project/paths/tests/density/Empty_1_20000.txt
Start: 0,0
Goal: 999,999
Number of samples: 20000
Number of threads: 1
Loading map from file: /jet/home/ppareek/15418-Final-Project/maps/tests/density/Empty.txt
Created Planner
Using Boost 1.66.0
Planning
Sampling 20000 points
Map width: 1000
Map height: 1000
Generation time: 1.8835e+06ns
Connection time: 1.12073e+09ns
Starting A*
20001
We have Reached the Goal!!!
All threads exited
Path Found
Query time: 2.7754e+07ns
Time taken: 1.15044 seconds
Path Nodes: 2110
Path Distance: 1998
Destroyed Planner
Testing 2 Threads and 20,000 samples
Input file: /jet/home/ppareek/15418-Final-Project/maps/tests/density/Empty.txt
Output file: /jet/home/ppareek/15418-Final-Project/paths/tests/density/Empty_2_20000.txt
Start: 0,0
Goal: 999,999
Number of samples: 20000
Number of threads: 2
Loading map from file: /jet/home/ppareek/15418-Final-Project/maps/tests/density/Empty.txt
Created Planner
Using Boost 1.66.0
Planning
Sampling 20000 points
Map width: 1000
Map height: 1000
Generation time: 6.26414e+06ns
Connection time: 7.53707e+08ns
Starting A*
20001
We have Reached the Goal!!!
All threads exited
Path Found
Query time: 1.67922e+08ns
Time taken: 0.92798 seconds
Path Nodes: 2107
Path Distance: 1998
Destroyed Planner
Testing 4 Threads and 20,000 samples
Input file: /jet/home/ppareek/15418-Final-Project/maps/tests/density/Empty.txt
Output file: /jet/home/ppareek/15418-Final-Project/paths/tests/density/Empty_4_20000.txt
Start: 0,0
Goal: 999,999
Number of samples: 20000
Number of threads: 4
Loading map from file: /jet/home/ppareek/15418-Final-Project/maps/tests/density/Empty.txt
Created Planner
Using Boost 1.66.0
Planning
Sampling 20000 points
Map width: 1000
Map height: 1000
Generation time: 1.02083e+07ns
Connection time: 4.64101e+08ns
Starting A*
20001
We have Reached the Goal!!!
All threads exited
Path Found
Query time: 3.07325e+08ns
Time taken: 0.781715 seconds
Path Nodes: 2102
Path Distance: 1998
Destroyed Planner
Testing 8 Threads and 20,000 samples
Input file: /jet/home/ppareek/15418-Final-Project/maps/tests/density/Empty.txt
Output file: /jet/home/ppareek/15418-Final-Project/paths/tests/density/Empty_8_20000.txt
Start: 0,0
Goal: 999,999
Number of samples: 20000
Number of threads: 8
Loading map from file: /jet/home/ppareek/15418-Final-Project/maps/tests/density/Empty.txt
Created Planner
Using Boost 1.66.0
Planning
Sampling 20000 points
Map width: 1000
Map height: 1000
Generation time: 2.25972e+07ns
Connection time: 3.83614e+08ns
Starting A*
20001
We have Reached the Goal!!!
All threads exited
Path Found
Query time: 2.23005e+08ns
Time taken: 0.629317 seconds
Path Nodes: 2112
Path Distance: 1998
Destroyed Planner
Testing 16 Threads and 20,000 samples
Input file: /jet/home/ppareek/15418-Final-Project/maps/tests/density/Empty.txt
Output file: /jet/home/ppareek/15418-Final-Project/paths/tests/density/Empty_16_20000.txt
Start: 0,0
Goal: 999,999
Number of samples: 20000
Number of threads: 16
Loading map from file: /jet/home/ppareek/15418-Final-Project/maps/tests/density/Empty.txt
Created Planner
Using Boost 1.66.0
Planning
Sampling 20000 points
Map width: 1000
Map height: 1000
Generation time: 2.47104e+07ns
Connection time: 3.4169e+08ns
Starting A*
20001
We have Reached the Goal!!!
All threads exited
Path Found
Query time: 1.58797e+08ns
Time taken: 0.525284 seconds
Path Nodes: 2106
Path Distance: 1998
Destroyed Planner
Testing 32 Threads and 20,000 samples
Input file: /jet/home/ppareek/15418-Final-Project/maps/tests/density/Empty.txt
Output file: /jet/home/ppareek/15418-Final-Project/paths/tests/density/Empty_32_20000.txt
Start: 0,0
Goal: 999,999
Number of samples: 20000
Number of threads: 32
Loading map from file: /jet/home/ppareek/15418-Final-Project/maps/tests/density/Empty.txt
Created Planner
Using Boost 1.66.0
Planning
Sampling 20000 points
Map width: 1000
Map height: 1000
Generation time: 2.52887e+07ns
Connection time: 2.30365e+08ns
Starting A*
20001
We have Reached the Goal!!!
All threads exited
Path Found
Query time: 1.10389e+08ns
Time taken: 0.366114 seconds
Path Nodes: 2106
Path Distance: 1998
Destroyed Planner
Testing 64 Threads and 20,000 samples
Input file: /jet/home/ppareek/15418-Final-Project/maps/tests/density/Empty.txt
Output file: /jet/home/ppareek/15418-Final-Project/paths/tests/density/Empty_64_20000.txt
Start: 0,0
Goal: 999,999
Number of samples: 20000
Number of threads: 64
Loading map from file: /jet/home/ppareek/15418-Final-Project/maps/tests/density/Empty.txt
Created Planner
Using Boost 1.66.0
Planning
Sampling 20000 points
Map width: 1000
Map height: 1000
Generation time: 2.13603e+07ns
Connection time: 1.87784e+08ns
Starting A*
20001
We have Reached the Goal!!!
All threads exited
Path Found
Query time: 7.65758e+07ns
Time taken: 0.285815 seconds
Path Nodes: 2105
Path Distance: 1998
Destroyed Planner
Testing 128 Threads and 20,000 samples
Input file: /jet/home/ppareek/15418-Final-Project/maps/tests/density/Empty.txt
Output file: /jet/home/ppareek/15418-Final-Project/paths/tests/density/Empty_128_20000.txt
Start: 0,0
Goal: 999,999
Number of samples: 20000
Number of threads: 128
Loading map from file: /jet/home/ppareek/15418-Final-Project/maps/tests/density/Empty.txt
Created Planner
Using Boost 1.66.0
Planning
Sampling 20000 points
Map width: 1000
Map height: 1000
Generation time: 4.08625e+07ns
Connection time: 2.57837e+08ns
Starting A*
20001
We have Reached the Goal!!!
All threads exited
Path Found
Query time: 1.279e+08ns
Time taken: 0.426703 seconds
Path Nodes: 2106
Path Distance: 2000
Destroyed Planner
--------------------------------------------------------------------------------
Done.
Testing /jet/home/ppareek/15418-Final-Project/scripts/test_scripts/test_large.sh
----------------------------------- Testing Large -----------------------------------
Testing 1 Thread and 20,000 samples
Input file: /jet/home/ppareek/15418-Final-Project/maps/tests/size/Large.txt
Output file: /jet/home/ppareek/15418-Final-Project/paths/tests/size/Large_1_20000.txt
Start: 0,0
Goal: 1999,1999
Number of samples: 20000
Number of threads: 1
Loading map from file: /jet/home/ppareek/15418-Final-Project/maps/tests/size/Large.txt
Created Planner
Using Boost 1.66.0
Planning
Sampling 20000 points
Map width: 2000
Map height: 2000
Generation time: 4.39935e+06ns
Connection time: 1.05443e+09ns
Starting A*
All threads exited
No Path Found
No path found. Planning Failed.
Query failed
Time taken: 1.14153 seconds
Path Nodes: 0
Path Distance: 0
Destroyed Planner
Testing 2 Threads and 20,000 samples
Input file: /jet/home/ppareek/15418-Final-Project/maps/tests/size/Large.txt
Output file: /jet/home/ppareek/15418-Final-Project/paths/tests/size/Large_2_20000.txt
Start: 0,0
Goal: 1999,1999
Number of samples: 20000
Number of threads: 2
Loading map from file: /jet/home/ppareek/15418-Final-Project/maps/tests/size/Large.txt
Created Planner
Using Boost 1.66.0
Planning
Sampling 20000 points
Map width: 2000
Map height: 2000
Generation time: 1.11394e+07ns
Connection time: 5.85519e+08ns
Starting A*
20001
We have Reached the Goal!!!
All threads exited
Path Found
Query time: 8.97972e+07ns
Time taken: 0.686547 seconds
Path Nodes: 4986
Path Distance: 4730
Destroyed Planner
Testing 4 Threads and 20,000 samples
Input file: /jet/home/ppareek/15418-Final-Project/maps/tests/size/Large.txt
Output file: /jet/home/ppareek/15418-Final-Project/paths/tests/size/Large_4_20000.txt
Start: 0,0
Goal: 1999,1999
Number of samples: 20000
Number of threads: 4
Loading map from file: /jet/home/ppareek/15418-Final-Project/maps/tests/size/Large.txt
Created Planner
Using Boost 1.66.0
Planning
Sampling 20000 points
Map width: 2000
Map height: 2000
Generation time: 1.66066e+07ns
Connection time: 3.31515e+08ns
Starting A*
All threads exited
No Path Found
No path found. Planning Failed.
Query failed
Time taken: 0.46147 seconds
Path Nodes: 0
Path Distance: 0
Destroyed Planner
Testing 8 Threads and 20,000 samples
Input file: /jet/home/ppareek/15418-Final-Project/maps/tests/size/Large.txt
Output file: /jet/home/ppareek/15418-Final-Project/paths/tests/size/Large_8_20000.txt
Start: 0,0
Goal: 1999,1999
Number of samples: 20000
Number of threads: 8
Loading map from file: /jet/home/ppareek/15418-Final-Project/maps/tests/size/Large.txt
Created Planner
Using Boost 1.66.0
Planning
Sampling 20000 points
Map width: 2000
Map height: 2000
Generation time: 2.42351e+07ns
Connection time: 2.16903e+08ns
Starting A*
All threads exited
No Path Found
No path found. Planning Failed.
Query failed
Time taken: 0.337845 seconds
Path Nodes: 0
Path Distance: 0
Destroyed Planner
Testing 16 Threads and 20,000 samples
Input file: /jet/home/ppareek/15418-Final-Project/maps/tests/size/Large.txt
Output file: /jet/home/ppareek/15418-Final-Project/paths/tests/size/Large_16_20000.txt
Start: 0,0
Goal: 1999,1999
Number of samples: 20000
Number of threads: 16
Loading map from file: /jet/home/ppareek/15418-Final-Project/maps/tests/size/Large.txt
Created Planner
Using Boost 1.66.0
Planning
Sampling 20000 points
Map width: 2000
Map height: 2000
Generation time: 3.62786e+07ns
Connection time: 1.73932e+08ns
Starting A*
All threads exited
No Path Found
No path found. Planning Failed.
Query failed
Time taken: 0.27009 seconds
Path Nodes: 0
Path Distance: 0
Destroyed Planner
Testing 32 Threads and 20,000 samples
Input file: /jet/home/ppareek/15418-Final-Project/maps/tests/size/Large.txt
Output file: /jet/home/ppareek/15418-Final-Project/paths/tests/size/Large_32_20000.txt
Start: 0,0
Goal: 1999,1999
Number of samples: 20000
Number of threads: 32
Loading map from file: /jet/home/ppareek/15418-Final-Project/maps/tests/size/Large.txt
Created Planner
Using Boost 1.66.0
Planning
Sampling 20000 points
Map width: 2000
Map height: 2000
Generation time: 3.74864e+07ns
Connection time: 1.17709e+08ns
Starting A*
All threads exited
No Path Found
No path found. Planning Failed.
Query failed
Time taken: 0.155467 seconds
Path Nodes: 0
Path Distance: 0
Destroyed Planner
Testing 64 Threads and 20,000 samples
Input file: /jet/home/ppareek/15418-Final-Project/maps/tests/size/Large.txt
Output file: /jet/home/ppareek/15418-Final-Project/paths/tests/size/Large_64_20000.txt
Start: 0,0
Goal: 1999,1999
Number of samples: 20000
Number of threads: 64
Loading map from file: /jet/home/ppareek/15418-Final-Project/maps/tests/size/Large.txt
Created Planner
Using Boost 1.66.0
Planning
Sampling 20000 points
Map width: 2000
Map height: 2000
Generation time: 4.70608e+07ns
Connection time: 9.54192e+07ns
Starting A*
All threads exited
No Path Found
No path found. Planning Failed.
Query failed
Time taken: 0.143616 seconds
Path Nodes: 0
Path Distance: 0
Destroyed Planner
Testing 128 Threads and 20,000 samples
Input file: /jet/home/ppareek/15418-Final-Project/maps/tests/size/Large.txt
Output file: /jet/home/ppareek/15418-Final-Project/paths/tests/size/Large_128_20000.txt
Start: 0,0
Goal: 1999,1999
Number of samples: 20000
Number of threads: 128
Loading map from file: /jet/home/ppareek/15418-Final-Project/maps/tests/size/Large.txt
Created Planner
Using Boost 1.66.0
Planning
Sampling 20000 points
Map width: 2000
Map height: 2000
Generation time: 5.99623e+07ns
Connection time: 2.37771e+08ns
Starting A*
All threads exited
No Path Found
No path found. Planning Failed.
Query failed
Time taken: 0.716384 seconds
Path Nodes: 0
Path Distance: 0
Destroyed Planner
--------------------------------------------------------------------------------
Testing 1 Threads and 40,000 samples
Input file: /jet/home/ppareek/15418-Final-Project/maps/tests/size/Large.txt
Output file: /jet/home/ppareek/15418-Final-Project/paths/tests/size/Large_1_40000.txt
Start: 0,0
Goal: 1999,1999
Number of samples: 40000
Number of threads: 1
Loading map from file: /jet/home/ppareek/15418-Final-Project/maps/tests/size/Large.txt
Created Planner
Using Boost 1.66.0
Planning
Sampling 40000 points
Map width: 2000
Map height: 2000
Generation time: 8.46015e+06ns
Connection time: 4.2202e+09ns
Starting A*
40001
We have Reached the Goal!!!
All threads exited
Path Found
Query time: 1.3783e+08ns
Time taken: 4.36692 seconds
Path Nodes: 4244
Path Distance: 4026
Destroyed Planner
Testing 2 Threads and 40,000 samples
Input file: /jet/home/ppareek/15418-Final-Project/maps/tests/size/Large.txt
Output file: /jet/home/ppareek/15418-Final-Project/paths/tests/size/Large_2_40000.txt
Start: 0,0
Goal: 1999,1999
Number of samples: 40000
Number of threads: 2
Loading map from file: /jet/home/ppareek/15418-Final-Project/maps/tests/size/Large.txt
Created Planner
Using Boost 1.66.0
Planning
Sampling 40000 points
Map width: 2000
Map height: 2000
Generation time: 2.19416e+07ns
Connection time: 2.31081e+09ns
Starting A*
40001
We have Reached the Goal!!!
All threads exited
Path Found
Query time: 2.79524e+08ns
Time taken: 2.61238 seconds
Path Nodes: 4346
Path Distance: 4128
Destroyed Planner
Testing 4 Threads and 40,000 samples
Input file: /jet/home/ppareek/15418-Final-Project/maps/tests/size/Large.txt
Output file: /jet/home/ppareek/15418-Final-Project/paths/tests/size/Large_4_40000.txt
Start: 0,0
Goal: 1999,1999
Number of samples: 40000
Number of threads: 4
Loading map from file: /jet/home/ppareek/15418-Final-Project/maps/tests/size/Large.txt
Created Planner
Using Boost 1.66.0
Planning
Sampling 40000 points
Map width: 2000
Map height: 2000
Generation time: 4.18103e+07ns
Connection time: 1.3447e+09ns
Starting A*
40001
We have Reached the Goal!!!
All threads exited
Path Found
Query time: 2.68239e+08ns
Time taken: 1.65486 seconds
Path Nodes: 4266
Path Distance: 4038
Destroyed Planner
Testing 8 Threads and 40,000 samples
Input file: /jet/home/ppareek/15418-Final-Project/maps/tests/size/Large.txt
Output file: /jet/home/ppareek/15418-Final-Project/paths/tests/size/Large_8_40000.txt
Start: 0,0
Goal: 1999,1999
Number of samples: 40000
Number of threads: 8
Loading map from file: /jet/home/ppareek/15418-Final-Project/maps/tests/size/Large.txt
Created Planner
Using Boost 1.66.0
Planning
Sampling 40000 points
Map width: 2000
Map height: 2000
Generation time: 4.08963e+07ns
Connection time: 8.55667e+08ns
Starting A*
40001
We have Reached the Goal!!!
All threads exited
Path Found
Query time: 2.72206e+08ns
Time taken: 1.16886 seconds
Path Nodes: 4265
Path Distance: 4048
Destroyed Planner
Testing 16 Threads and 40,000 samples
Input file: /jet/home/ppareek/15418-Final-Project/maps/tests/size/Large.txt
Output file: /jet/home/ppareek/15418-Final-Project/paths/tests/size/Large_16_40000.txt
Start: 0,0
Goal: 1999,1999
Number of samples: 40000
Number of threads: 16
Loading map from file: /jet/home/ppareek/15418-Final-Project/maps/tests/size/Large.txt
Created Planner
Using Boost 1.66.0
Planning
Sampling 40000 points
Map width: 2000
Map height: 2000
Generation time: 5.22301e+07ns
Connection time: 7.00651e+08ns
Starting A*
40001
We have Reached the Goal!!!
All threads exited
Path Found
Query time: 1.22949e+08ns
Time taken: 0.875919 seconds
Path Nodes: 4438
Path Distance: 4206
Destroyed Planner
Testing 32 Threads and 40,000 samples
Input file: /jet/home/ppareek/15418-Final-Project/maps/tests/size/Large.txt
Output file: /jet/home/ppareek/15418-Final-Project/paths/tests/size/Large_32_40000.txt
Start: 0,0
Goal: 1999,1999
Number of samples: 40000
Number of threads: 32
Loading map from file: /jet/home/ppareek/15418-Final-Project/maps/tests/size/Large.txt
Created Planner
Using Boost 1.66.0
Planning
Sampling 40000 points
Map width: 2000
Map height: 2000
Generation time: 4.82498e+07ns
Connection time: 4.79176e+08ns
Starting A*
40001
We have Reached the Goal!!!
All threads exited
Path Found
Query time: 1.27755e+08ns
Time taken: 0.655286 seconds
Path Nodes: 4567
Path Distance: 4334
Destroyed Planner
Testing 64 Threads and 40,000 samples
Input file: /jet/home/ppareek/15418-Final-Project/maps/tests/size/Large.txt
Output file: /jet/home/ppareek/15418-Final-Project/paths/tests/size/Large_64_40000.txt
Start: 0,0
Goal: 1999,1999
Number of samples: 40000
Number of threads: 64
Loading map from file: /jet/home/ppareek/15418-Final-Project/maps/tests/size/Large.txt
Created Planner
Using Boost 1.66.0
Planning
Sampling 40000 points
Map width: 2000
Map height: 2000
Generation time: 7.57291e+07ns
Connection time: 3.81495e+08ns
Starting A*
40001
We have Reached the Goal!!!
All threads exited
Path Found
Query time: 7.60888e+07ns
Time taken: 0.533429 seconds
Path Nodes: 4539
Path Distance: 4306
Destroyed Planner
Testing 128 Threads and 40,000 samples
Input file: /jet/home/ppareek/15418-Final-Project/maps/tests/size/Large.txt
Output file: /jet/home/ppareek/15418-Final-Project/paths/tests/size/Large_128_40000.txt
Start: 0,0
Goal: 1999,1999
Number of samples: 40000
Number of threads: 128
Loading map from file: /jet/home/ppareek/15418-Final-Project/maps/tests/size/Large.txt
Created Planner
Using Boost 1.66.0
Planning
Sampling 40000 points
Map width: 2000
Map height: 2000
Generation time: 1.0791e+08ns
Connection time: 3.93572e+08ns
Starting A*
40001
We have Reached the Goal!!!
All threads exited
Path Found
Query time: 1.97422e+08ns
Time taken: 0.699052 seconds
Path Nodes: 4384
Path Distance: 4160
Destroyed Planner
--------------------------------------------------------------------------------
Testing 1 Threads and 80,000 samples
Input file: /jet/home/ppareek/15418-Final-Project/maps/tests/size/Large.txt
Output file: /jet/home/ppareek/15418-Final-Project/paths/tests/size/Large_1_80000.txt
Start: 0,0
Goal: 1999,1999
Number of samples: 80000
Number of threads: 1
Loading map from file: /jet/home/ppareek/15418-Final-Project/maps/tests/size/Large.txt
Created Planner
Using Boost 1.66.0
Planning
Sampling 80000 points
Map width: 2000
Map height: 2000
Generation time: 1.94209e+07ns
Connection time: 1.6771e+10ns
Starting A*
80001
We have Reached the Goal!!!
All threads exited
Path Found
Query time: 2.05643e+08ns
Time taken: 16.9962 seconds
Path Nodes: 4223
Path Distance: 3998
Destroyed Planner
Testing 2 Threads and 80,000 samples
Input file: /jet/home/ppareek/15418-Final-Project/maps/tests/size/Large.txt
Output file: /jet/home/ppareek/15418-Final-Project/paths/tests/size/Large_2_80000.txt
Start: 0,0
Goal: 1999,1999
Number of samples: 80000
Number of threads: 2
Loading map from file: /jet/home/ppareek/15418-Final-Project/maps/tests/size/Large.txt
Created Planner
Using Boost 1.66.0
Planning
Sampling 80000 points
Map width: 2000
Map height: 2000
Generation time: 4.07232e+07ns
Connection time: 9.32386e+09ns
Starting A*
80001
We have Reached the Goal!!!
All threads exited
Path Found
Query time: 1.31967e+09ns
Time taken: 10.6844 seconds
Path Nodes: 4221
Path Distance: 4004
Destroyed Planner
Testing 4 Threads and 80,000 samples
Input file: /jet/home/ppareek/15418-Final-Project/maps/tests/size/Large.txt
Output file: /jet/home/ppareek/15418-Final-Project/paths/tests/size/Large_4_80000.txt
Start: 0,0
Goal: 1999,1999
Number of samples: 80000
Number of threads: 4
Loading map from file: /jet/home/ppareek/15418-Final-Project/maps/tests/size/Large.txt
Created Planner
Using Boost 1.66.0
Planning
Sampling 80000 points
Map width: 2000
Map height: 2000
Generation time: 7.1741e+07ns
Connection time: 5.81173e+09ns
Starting A*
80001
We have Reached the Goal!!!
All threads exited
Path Found
Query time: 2.90623e+09ns
Time taken: 8.78986 seconds
Path Nodes: 4214
Path Distance: 4000
Destroyed Planner
Testing 8 Threads and 80,000 samples
Input file: /jet/home/ppareek/15418-Final-Project/maps/tests/size/Large.txt
Output file: /jet/home/ppareek/15418-Final-Project/paths/tests/size/Large_8_80000.txt
Start: 0,0
Goal: 1999,1999
Number of samples: 80000
Number of threads: 8
Loading map from file: /jet/home/ppareek/15418-Final-Project/maps/tests/size/Large.txt
Created Planner
Using Boost 1.66.0
Planning
Sampling 80000 points
Map width: 2000
Map height: 2000
Generation time: 8.12129e+07ns
Connection time: 3.58795e+09ns
Starting A*
80001
We have Reached the Goal!!!
All threads exited
Path Found
Query time: 1.31898e+09ns
Time taken: 4.98833 seconds
Path Nodes: 4215
Path Distance: 3998
Destroyed Planner
Testing 16 Threads and 80,000 samples
Input file: /jet/home/ppareek/15418-Final-Project/maps/tests/size/Large.txt
Output file: /jet/home/ppareek/15418-Final-Project/paths/tests/size/Large_16_80000.txt
Start: 0,0
Goal: 1999,1999
Number of samples: 80000
Number of threads: 16
Loading map from file: /jet/home/ppareek/15418-Final-Project/maps/tests/size/Large.txt
Created Planner
Using Boost 1.66.0
Planning
Sampling 80000 points
Map width: 2000
Map height: 2000
Generation time: 1.34744e+08ns
Connection time: 2.93927e+09ns
Starting A*
80001
We have Reached the Goal!!!
All threads exited
Path Found
Query time: 1.18302e+09ns
Time taken: 4.25719 seconds
Path Nodes: 4218
Path Distance: 4004
Destroyed Planner
Testing 32 Threads and 80,000 samples
Input file: /jet/home/ppareek/15418-Final-Project/maps/tests/size/Large.txt
Output file: /jet/home/ppareek/15418-Final-Project/paths/tests/size/Large_32_80000.txt
Start: 0,0
Goal: 1999,1999
Number of samples: 80000
Number of threads: 32
Loading map from file: /jet/home/ppareek/15418-Final-Project/maps/tests/size/Large.txt
Created Planner
Using Boost 1.66.0
Planning
Sampling 80000 points
Map width: 2000
Map height: 2000
Generation time: 1.05119e+08ns
Connection time: 2.03128e+09ns
Starting A*
80001
We have Reached the Goal!!!
All threads exited
Path Found
Query time: 6.41175e+08ns
Time taken: 2.77779 seconds
Path Nodes: 4216
Path Distance: 4000
Destroyed Planner
Testing 64 Threads and 80,000 samples
Input file: /jet/home/ppareek/15418-Final-Project/maps/tests/size/Large.txt
Output file: /jet/home/ppareek/15418-Final-Project/paths/tests/size/Large_64_80000.txt
Start: 0,0
Goal: 1999,1999
Number of samples: 80000
Number of threads: 64
Loading map from file: /jet/home/ppareek/15418-Final-Project/maps/tests/size/Large.txt
Created Planner
Using Boost 1.66.0
Planning
Sampling 80000 points
Map width: 2000
Map height: 2000
Generation time: 1.22063e+08ns
Connection time: 1.698e+09ns
Starting A*
80001
We have Reached the Goal!!!
All threads exited
Path Found
Query time: 5.6088e+08ns
Time taken: 2.38118 seconds
Path Nodes: 4218
Path Distance: 4004
Destroyed Planner
Testing 128 Threads and 80,000 samples
Input file: /jet/home/ppareek/15418-Final-Project/maps/tests/size/Large.txt
Output file: /jet/home/ppareek/15418-Final-Project/paths/tests/size/Large_128_80000.txt
Start: 0,0
Goal: 1999,1999
Number of samples: 80000
Number of threads: 128
Loading map from file: /jet/home/ppareek/15418-Final-Project/maps/tests/size/Large.txt
Created Planner
Using Boost 1.66.0
Planning
Sampling 80000 points
Map width: 2000
Map height: 2000
Generation time: 1.81514e+08ns
Connection time: 1.58337e+09ns
Starting A*
80001
We have Reached the Goal!!!
All threads exited
Path Found
Query time: 4.29905e+08ns
Time taken: 2.19507 seconds
Path Nodes: 4217
Path Distance: 4006
Destroyed Planner
--------------------------------------------------------------------------------
Done.
Testing /jet/home/ppareek/15418-Final-Project/scripts/test_scripts/test_medium_density.sh
----------------------------------- Testing Medium_Density -----------------------------------
Testing 1 Thread and 5,000 samples
Input file: /jet/home/ppareek/15418-Final-Project/maps/tests/density/Medium_Density.txt
Output file: /jet/home/ppareek/15418-Final-Project/paths/tests/density/Medium_Density_1_5000.txt
Start: 0,0
Goal: 999,999
Number of samples: 5000
Number of threads: 1
Loading map from file: /jet/home/ppareek/15418-Final-Project/maps/tests/density/Medium_Density.txt
Created Planner
Using Boost 1.66.0
Planning
Sampling 5000 points
Map width: 1000
Map height: 1000
Generation time: 579430ns
Connection time: 6.83768e+07ns
Starting A*
All threads exited
No Path Found
No path found. Planning Failed.
Query failed
Time taken: 0.0802009 seconds
Path Nodes: 0
Path Distance: 0
Destroyed Planner
Testing 2 Threads and 5,000 samples
Input file: /jet/home/ppareek/15418-Final-Project/maps/tests/density/Medium_Density.txt
Output file: /jet/home/ppareek/15418-Final-Project/paths/tests/density/Medium_Density_2_5000.txt
Start: 0,0
Goal: 999,999
Number of samples: 5000
Number of threads: 2
Loading map from file: /jet/home/ppareek/15418-Final-Project/maps/tests/density/Medium_Density.txt
Created Planner
Using Boost 1.66.0
Planning
Sampling 5000 points
Map width: 1000
Map height: 1000
Generation time: 2.02596e+06ns
Connection time: 5.16536e+07ns
Starting A*
5001
We have Reached the Goal!!!
All threads exited
Path Found
Query time: 1.69323e+07ns
Time taken: 0.0706556 seconds
Path Nodes: 2468
Path Distance: 2340
Destroyed Planner
Testing 4 Threads and 5,000 samples
Input file: /jet/home/ppareek/15418-Final-Project/maps/tests/density/Medium_Density.txt
Output file: /jet/home/ppareek/15418-Final-Project/paths/tests/density/Medium_Density_4_5000.txt
Start: 0,0
Goal: 999,999
Number of samples: 5000
Number of threads: 4
Loading map from file: /jet/home/ppareek/15418-Final-Project/maps/tests/density/Medium_Density.txt
Created Planner
Using Boost 1.66.0
Planning
Sampling 5000 points
Map width: 1000
Map height: 1000
Generation time: 4.67168e+06ns
Connection time: 3.82349e+07ns
Starting A*
All threads exited
No Path Found
No path found. Planning Failed.
Query failed
Time taken: 0.0709738 seconds
Path Nodes: 0
Path Distance: 0
Destroyed Planner
Testing 8 Threads and 5,000 samples
Input file: /jet/home/ppareek/15418-Final-Project/maps/tests/density/Medium_Density.txt
Output file: /jet/home/ppareek/15418-Final-Project/paths/tests/density/Medium_Density_8_5000.txt
Start: 0,0
Goal: 999,999
Number of samples: 5000
Number of threads: 8
Loading map from file: /jet/home/ppareek/15418-Final-Project/maps/tests/density/Medium_Density.txt
Created Planner
Using Boost 1.66.0
Planning
Sampling 5000 points
Map width: 1000
Map height: 1000
Generation time: 5.95236e+06ns
Connection time: 2.88584e+07ns
Starting A*
All threads exited
No Path Found
No path found. Planning Failed.
Query failed
Time taken: 0.0579605 seconds
Path Nodes: 0
Path Distance: 0
Destroyed Planner
Testing 16 Threads and 5,000 samples
Input file: /jet/home/ppareek/15418-Final-Project/maps/tests/density/Medium_Density.txt
Output file: /jet/home/ppareek/15418-Final-Project/paths/tests/density/Medium_Density_16_5000.txt
Start: 0,0
Goal: 999,999
Number of samples: 5000
Number of threads: 16
Loading map from file: /jet/home/ppareek/15418-Final-Project/maps/tests/density/Medium_Density.txt
Created Planner
Using Boost 1.66.0
Planning
Sampling 5000 points
Map width: 1000
Map height: 1000
Generation time: 6.57651e+06ns
Connection time: 2.42752e+07ns
Starting A*
5001
We have Reached the Goal!!!
All threads exited
Path Found
Query time: 1.1324e+07ns
Time taken: 0.0422155 seconds
Path Nodes: 2331
Path Distance: 2210
Destroyed Planner
Testing 32 Threads and 5,000 samples
Input file: /jet/home/ppareek/15418-Final-Project/maps/tests/density/Medium_Density.txt
Output file: /jet/home/ppareek/15418-Final-Project/paths/tests/density/Medium_Density_32_5000.txt
Start: 0,0
Goal: 999,999
Number of samples: 5000
Number of threads: 32
Loading map from file: /jet/home/ppareek/15418-Final-Project/maps/tests/density/Medium_Density.txt
Created Planner
Using Boost 1.66.0
Planning
Sampling 5000 points
Map width: 1000
Map height: 1000
Generation time: 1.03021e+07ns
Connection time: 1.71571e+07ns
Starting A*
All threads exited
No Path Found
No path found. Planning Failed.
Query failed
Time taken: 0.0376864 seconds
Path Nodes: 0
Path Distance: 0
Destroyed Planner
Testing 64 Threads and 5,000 samples
Input file: /jet/home/ppareek/15418-Final-Project/maps/tests/density/Medium_Density.txt
Output file: /jet/home/ppareek/15418-Final-Project/paths/tests/density/Medium_Density_64_5000.txt
Start: 0,0
Goal: 999,999
Number of samples: 5000
Number of threads: 64
Loading map from file: /jet/home/ppareek/15418-Final-Project/maps/tests/density/Medium_Density.txt
Created Planner
Using Boost 1.66.0
Planning
Sampling 5000 points
Map width: 1000
Map height: 1000
Generation time: 2.28451e+07ns
Connection time: 2.26504e+07ns
Starting A*
5001
We have Reached the Goal!!!
All threads exited
Path Found
Query time: 9.63372e+06ns
Time taken: 0.0552379 seconds
Path Nodes: 2347
Path Distance: 2228
Destroyed Planner
Testing 128 Threads and 5,000 samples
Input file: /jet/home/ppareek/15418-Final-Project/maps/tests/density/Medium_Density.txt
Output file: /jet/home/ppareek/15418-Final-Project/paths/tests/density/Medium_Density_128_5000.txt
Start: 0,0
Goal: 999,999
Number of samples: 5000
Number of threads: 128
Loading map from file: /jet/home/ppareek/15418-Final-Project/maps/tests/density/Medium_Density.txt
Created Planner
Using Boost 1.66.0
Planning
Sampling 5000 points
Map width: 1000
Map height: 1000
Generation time: 3.52048e+07ns
Connection time: 3.49617e+07ns
Starting A*
All threads exited
No Path Found
No path found. Planning Failed.
Query failed
Time taken: 0.120022 seconds
Path Nodes: 0
Path Distance: 0
Destroyed Planner
--------------------------------------------------------------------------------
Testing 1 Threads and 10,000 samples
Input file: /jet/home/ppareek/15418-Final-Project/maps/tests/density/Medium_Density.txt
Output file: /jet/home/ppareek/15418-Final-Project/paths/tests/density/Medium_Density_1_10000.txt
Start: 0,0
Goal: 999,999
Number of samples: 10000
Number of threads: 1
Loading map from file: /jet/home/ppareek/15418-Final-Project/maps/tests/density/Medium_Density.txt
Created Planner
Using Boost 1.66.0
Planning
Sampling 10000 points
Map width: 1000
Map height: 1000
Generation time: 1.08347e+06ns
Connection time: 2.78887e+08ns
Starting A*
10001
We have Reached the Goal!!!
All threads exited
Path Found
Query time: 3.70058e+07ns
Time taken: 0.317038 seconds
Path Nodes: 2123
Path Distance: 2008
Destroyed Planner
Testing 2 Threads and 10,000 samples
Input file: /jet/home/ppareek/15418-Final-Project/maps/tests/density/Medium_Density.txt
Output file: /jet/home/ppareek/15418-Final-Project/paths/tests/density/Medium_Density_2_10000.txt
Start: 0,0
Goal: 999,999
Number of samples: 10000
Number of threads: 2
Loading map from file: /jet/home/ppareek/15418-Final-Project/maps/tests/density/Medium_Density.txt
Created Planner
Using Boost 1.66.0
Planning
Sampling 10000 points
Map width: 1000
Map height: 1000
Generation time: 3.84974e+06ns
Connection time: 2.13779e+08ns
Starting A*
10001
We have Reached the Goal!!!
All threads exited
Path Found
Query time: 8.56392e+07ns
Time taken: 0.303332 seconds
Path Nodes: 2412
Path Distance: 2284
Destroyed Planner
Testing 4 Threads and 10,000 samples
Input file: /jet/home/ppareek/15418-Final-Project/maps/tests/density/Medium_Density.txt
Output file: /jet/home/ppareek/15418-Final-Project/paths/tests/density/Medium_Density_4_10000.txt
Start: 0,0
Goal: 999,999
Number of samples: 10000
Number of threads: 4
Loading map from file: /jet/home/ppareek/15418-Final-Project/maps/tests/density/Medium_Density.txt
Created Planner
Using Boost 1.66.0
Planning
Sampling 10000 points
Map width: 1000
Map height: 1000
Generation time: 9.52834e+06ns
Connection time: 1.41461e+08ns
Starting A*
10001
We have Reached the Goal!!!
All threads exited
Path Found
Query time: 7.01094e+07ns
Time taken: 0.221151 seconds
Path Nodes: 2238
Path Distance: 2120
Destroyed Planner
Testing 8 Threads and 10,000 samples
Input file: /jet/home/ppareek/15418-Final-Project/maps/tests/density/Medium_Density.txt
Output file: /jet/home/ppareek/15418-Final-Project/paths/tests/density/Medium_Density_8_10000.txt
Start: 0,0
Goal: 999,999
Number of samples: 10000
Number of threads: 8
Loading map from file: /jet/home/ppareek/15418-Final-Project/maps/tests/density/Medium_Density.txt
Created Planner
Using Boost 1.66.0
Planning
Sampling 10000 points
Map width: 1000
Map height: 1000
Generation time: 1.69496e+07ns
Connection time: 1.16182e+08ns
Starting A*
10001
We have Reached the Goal!!!
All threads exited
Path Found
Query time: 4.94417e+07ns
Time taken: 0.182618 seconds
Path Nodes: 2201
Path Distance: 2088
Destroyed Planner
Testing 16 Threads and 10,000 samples
Input file: /jet/home/ppareek/15418-Final-Project/maps/tests/density/Medium_Density.txt
Output file: /jet/home/ppareek/15418-Final-Project/paths/tests/density/Medium_Density_16_10000.txt
Start: 0,0
Goal: 999,999
Number of samples: 10000
Number of threads: 16
Loading map from file: /jet/home/ppareek/15418-Final-Project/maps/tests/density/Medium_Density.txt
Created Planner
Using Boost 1.66.0
Planning
Sampling 10000 points
Map width: 1000
Map height: 1000
Generation time: 1.24483e+07ns
Connection time: 1.03123e+08ns
Starting A*
10001
We have Reached the Goal!!!
All threads exited
Path Found
Query time: 6.5204e+07ns
Time taken: 0.180841 seconds
Path Nodes: 2174
Path Distance: 2060
Destroyed Planner
Testing 32 Threads and 10,000 samples
Input file: /jet/home/ppareek/15418-Final-Project/maps/tests/density/Medium_Density.txt
Output file: /jet/home/ppareek/15418-Final-Project/paths/tests/density/Medium_Density_32_10000.txt
Start: 0,0
Goal: 999,999
Number of samples: 10000
Number of threads: 32
Loading map from file: /jet/home/ppareek/15418-Final-Project/maps/tests/density/Medium_Density.txt
Created Planner
Using Boost 1.66.0
Planning
Sampling 10000 points
Map width: 1000
Map height: 1000
Generation time: 1.36946e+07ns
Connection time: 7.0658e+07ns
Starting A*
10001
We have Reached the Goal!!!
All threads exited
Path Found
Query time: 3.27982e+07ns
Time taken: 0.117231 seconds
Path Nodes: 2160
Path Distance: 2052
Destroyed Planner
Testing 64 Threads and 10,000 samples
Input file: /jet/home/ppareek/15418-Final-Project/maps/tests/density/Medium_Density.txt
Output file: /jet/home/ppareek/15418-Final-Project/paths/tests/density/Medium_Density_64_10000.txt
Start: 0,0
Goal: 999,999
Number of samples: 10000
Number of threads: 64
Loading map from file: /jet/home/ppareek/15418-Final-Project/maps/tests/density/Medium_Density.txt
Created Planner
Using Boost 1.66.0
Planning
Sampling 10000 points
Map width: 1000
Map height: 1000
Generation time: 2.58959e+07ns
Connection time: 6.60908e+07ns
Starting A*
10001
We have Reached the Goal!!!
All threads exited
Path Found
Query time: 2.47649e+07ns
Time taken: 0.116828 seconds
Path Nodes: 2254
Path Distance: 2134
Destroyed Planner
Testing 128 Threads and 10,000 samples
Input file: /jet/home/ppareek/15418-Final-Project/maps/tests/density/Medium_Density.txt
Output file: /jet/home/ppareek/15418-Final-Project/paths/tests/density/Medium_Density_128_10000.txt
Start: 0,0
Goal: 999,999
Number of samples: 10000
Number of threads: 128
Loading map from file: /jet/home/ppareek/15418-Final-Project/maps/tests/density/Medium_Density.txt
Created Planner
Using Boost 1.66.0
Planning
Sampling 10000 points
Map width: 1000
Map height: 1000
Generation time: 3.66059e+07ns
Connection time: 8.50347e+07ns
Starting A*
10001
We have Reached the Goal!!!
All threads exited
Path Found
Query time: 1.49847e+08ns
Time taken: 0.271598 seconds
Path Nodes: 2260
Path Distance: 2148
Destroyed Planner
--------------------------------------------------------------------------------
Testing 1 Threads and 20,000 samples
Input file: /jet/home/ppareek/15418-Final-Project/maps/tests/density/Medium_Density.txt
Output file: /jet/home/ppareek/15418-Final-Project/paths/tests/density/Medium_Density_1_20000.txt
Start: 0,0
Goal: 999,999
Number of samples: 20000
Number of threads: 1
Loading map from file: /jet/home/ppareek/15418-Final-Project/maps/tests/density/Medium_Density.txt
Created Planner
Using Boost 1.66.0
Planning
Sampling 20000 points
Map width: 1000
Map height: 1000
Generation time: 2.32998e+06ns
Connection time: 1.13917e+09ns
Starting A*
20001
We have Reached the Goal!!!
All threads exited
Path Found
Query time: 2.183e+08ns
Time taken: 1.35988 seconds
Path Nodes: 2115
Path Distance: 1998
Destroyed Planner
Testing 2 Threads and 20,000 samples
Input file: /jet/home/ppareek/15418-Final-Project/maps/tests/density/Medium_Density.txt
Output file: /jet/home/ppareek/15418-Final-Project/paths/tests/density/Medium_Density_2_20000.txt
Start: 0,0
Goal: 999,999
Number of samples: 20000
Number of threads: 2
Loading map from file: /jet/home/ppareek/15418-Final-Project/maps/tests/density/Medium_Density.txt
Created Planner
Using Boost 1.66.0
Planning
Sampling 20000 points
Map width: 1000
Map height: 1000
Generation time: 6.10576e+06ns
Connection time: 7.7318e+08ns
Starting A*
20001
We have Reached the Goal!!!
All threads exited
Path Found
Query time: 3.53055e+08ns
Time taken: 1.13244 seconds
Path Nodes: 2123
Path Distance: 2014
Destroyed Planner
Testing 4 Threads and 20,000 samples
Input file: /jet/home/ppareek/15418-Final-Project/maps/tests/density/Medium_Density.txt
Output file: /jet/home/ppareek/15418-Final-Project/paths/tests/density/Medium_Density_4_20000.txt
Start: 0,0
Goal: 999,999
Number of samples: 20000
Number of threads: 4
Loading map from file: /jet/home/ppareek/15418-Final-Project/maps/tests/density/Medium_Density.txt
Created Planner
Using Boost 1.66.0
Planning
Sampling 20000 points
Map width: 1000
Map height: 1000
Generation time: 1.56137e+07ns
Connection time: 5.89032e+08ns
Starting A*
20001
We have Reached the Goal!!!
All threads exited
Path Found
Query time: 4.14211e+08ns
Time taken: 1.01894 seconds
Path Nodes: 2107
Path Distance: 1998
Destroyed Planner
Testing 8 Threads and 20,000 samples
Input file: /jet/home/ppareek/15418-Final-Project/maps/tests/density/Medium_Density.txt
Output file: /jet/home/ppareek/15418-Final-Project/paths/tests/density/Medium_Density_8_20000.txt
Start: 0,0
Goal: 999,999
Number of samples: 20000
Number of threads: 8
Loading map from file: /jet/home/ppareek/15418-Final-Project/maps/tests/density/Medium_Density.txt
Created Planner
Using Boost 1.66.0
Planning
Sampling 20000 points
Map width: 1000
Map height: 1000
Generation time: 2.00922e+07ns
Connection time: 4.80629e+08ns
Starting A*
20001
We have Reached the Goal!!!
All threads exited
Path Found
Query time: 2.9512e+08ns
Time taken: 0.795927 seconds
Path Nodes: 2108
Path Distance: 1998
Destroyed Planner
Testing 16 Threads and 20,000 samples
Input file: /jet/home/ppareek/15418-Final-Project/maps/tests/density/Medium_Density.txt
Output file: /jet/home/ppareek/15418-Final-Project/paths/tests/density/Medium_Density_16_20000.txt
Start: 0,0
Goal: 999,999
Number of samples: 20000
Number of threads: 16
Loading map from file: /jet/home/ppareek/15418-Final-Project/maps/tests/density/Medium_Density.txt
Created Planner
Using Boost 1.66.0
Planning
Sampling 20000 points
Map width: 1000
Map height: 1000
Generation time: 3.40017e+07ns
Connection time: 4.17563e+08ns
Starting A*
20001
We have Reached the Goal!!!
All threads exited
Path Found
Query time: 1.37641e+08ns
Time taken: 0.589278 seconds
Path Nodes: 2155
Path Distance: 2040
Destroyed Planner
Testing 32 Threads and 20,000 samples
Input file: /jet/home/ppareek/15418-Final-Project/maps/tests/density/Medium_Density.txt
Output file: /jet/home/ppareek/15418-Final-Project/paths/tests/density/Medium_Density_32_20000.txt
Start: 0,0
Goal: 999,999
Number of samples: 20000
Number of threads: 32
Loading map from file: /jet/home/ppareek/15418-Final-Project/maps/tests/density/Medium_Density.txt
Created Planner
Using Boost 1.66.0
Planning
Sampling 20000 points
Map width: 1000
Map height: 1000
Generation time: 3.50568e+07ns
Connection time: 2.78314e+08ns
Starting A*
20001
We have Reached the Goal!!!
All threads exited
Path Found
Query time: 1.33973e+08ns
Time taken: 0.447511 seconds
Path Nodes: 2113
Path Distance: 2002
Destroyed Planner
Testing 64 Threads and 20,000 samples
Input file: /jet/home/ppareek/15418-Final-Project/maps/tests/density/Medium_Density.txt
Output file: /jet/home/ppareek/15418-Final-Project/paths/tests/density/Medium_Density_64_20000.txt
Start: 0,0
Goal: 999,999
Number of samples: 20000
Number of threads: 64
Loading map from file: /jet/home/ppareek/15418-Final-Project/maps/tests/density/Medium_Density.txt
Created Planner
Using Boost 1.66.0
Planning
Sampling 20000 points
Map width: 1000
Map height: 1000
Generation time: 4.33885e+07ns
Connection time: 2.47938e+08ns
Starting A*
20001
We have Reached the Goal!!!
All threads exited
Path Found
Query time: 9.78086e+07ns
Time taken: 0.38927 seconds
Path Nodes: 2119
Path Distance: 2012
Destroyed Planner
Testing 128 Threads and 20,000 samples
Input file: /jet/home/ppareek/15418-Final-Project/maps/tests/density/Medium_Density.txt
Output file: /jet/home/ppareek/15418-Final-Project/paths/tests/density/Medium_Density_128_20000.txt
Start: 0,0
Goal: 999,999
Number of samples: 20000
Number of threads: 128
Loading map from file: /jet/home/ppareek/15418-Final-Project/maps/tests/density/Medium_Density.txt
Created Planner
Using Boost 1.66.0
Planning
Sampling 20000 points
Map width: 1000
Map height: 1000
Generation time: 6.71935e+07ns
Connection time: 3.46106e+08ns
Starting A*
20001
We have Reached the Goal!!!
All threads exited
Path Found
Query time: 1.25006e+08ns
Time taken: 0.538443 seconds
Path Nodes: 2111
Path Distance: 2002
Destroyed Planner
--------------------------------------------------------------------------------
Done.
Testing /jet/home/ppareek/15418-Final-Project/scripts/test_scripts/test_medium.sh
----------------------------------- Testing Medium -----------------------------------
Testing 1 Thread and 5,000 samples
Input file: /jet/home/ppareek/15418-Final-Project/maps/tests/size/Medium.txt
Output file: /jet/home/ppareek/15418-Final-Project/paths/tests/size/Medium_1_5000.txt
Start: 0,0
Goal: 999,999
Number of samples: 5000
Number of threads: 1
Loading map from file: /jet/home/ppareek/15418-Final-Project/maps/tests/size/Medium.txt
Created Planner
Using Boost 1.66.0
Planning
Sampling 5000 points
Map width: 1000
Map height: 1000
Generation time: 608134ns
Connection time: 7.04468e+07ns
Starting A*
All threads exited
No Path Found
No path found. Planning Failed.
Query failed
Time taken: 0.0711405 seconds
Path Nodes: 0
Path Distance: 0
Destroyed Planner
Testing 2 Threads and 5,000 samples
Input file: /jet/home/ppareek/15418-Final-Project/maps/tests/size/Medium.txt
Output file: /jet/home/ppareek/15418-Final-Project/paths/tests/size/Medium_2_5000.txt
Start: 0,0
Goal: 999,999
Number of samples: 5000
Number of threads: 2
Loading map from file: /jet/home/ppareek/15418-Final-Project/maps/tests/size/Medium.txt
Created Planner
Using Boost 1.66.0
Planning
Sampling 5000 points
Map width: 1000
Map height: 1000
Generation time: 2.28396e+06ns
Connection time: 5.56481e+07ns
Starting A*
All threads exited
No Path Found
No path found. Planning Failed.
Query failed
Time taken: 0.0762995 seconds
Path Nodes: 0
Path Distance: 0
Destroyed Planner
Testing 4 Threads and 5,000 samples
Input file: /jet/home/ppareek/15418-Final-Project/maps/tests/size/Medium.txt
Output file: /jet/home/ppareek/15418-Final-Project/paths/tests/size/Medium_4_5000.txt
Start: 0,0
Goal: 999,999
Number of samples: 5000
Number of threads: 4
Loading map from file: /jet/home/ppareek/15418-Final-Project/maps/tests/size/Medium.txt
Created Planner
Using Boost 1.66.0
Planning
Sampling 5000 points
Map width: 1000
Map height: 1000
Generation time: 4.40001e+06ns
Connection time: 3.86771e+07ns
Starting A*
All threads exited
No Path Found
No path found. Planning Failed.
Query failed
Time taken: 0.0431684 seconds
Path Nodes: 0
Path Distance: 0
Destroyed Planner
Testing 8 Threads and 5,000 samples
Input file: /jet/home/ppareek/15418-Final-Project/maps/tests/size/Medium.txt
Output file: /jet/home/ppareek/15418-Final-Project/paths/tests/size/Medium_8_5000.txt
Start: 0,0
Goal: 999,999
Number of samples: 5000
Number of threads: 8
Loading map from file: /jet/home/ppareek/15418-Final-Project/maps/tests/size/Medium.txt
Created Planner
Using Boost 1.66.0
Planning
Sampling 5000 points
Map width: 1000
Map height: 1000
Generation time: 6.03828e+06ns
Connection time: 2.99536e+07ns
Starting A*
All threads exited
No Path Found
No path found. Planning Failed.
Query failed
Time taken: 0.0379981 seconds
Path Nodes: 0
Path Distance: 0
Destroyed Planner
Testing 16 Threads and 5,000 samples
Input file: /jet/home/ppareek/15418-Final-Project/maps/tests/size/Medium.txt
Output file: /jet/home/ppareek/15418-Final-Project/paths/tests/size/Medium_16_5000.txt
Start: 0,0
Goal: 999,999
Number of samples: 5000
Number of threads: 16
Loading map from file: /jet/home/ppareek/15418-Final-Project/maps/tests/size/Medium.txt
Created Planner
Using Boost 1.66.0
Planning
Sampling 5000 points
Map width: 1000
Map height: 1000
Generation time: 7.3992e+06ns
Connection time: 2.40305e+07ns
Starting A*
5001
We have Reached the Goal!!!
All threads exited
Path Found
Query time: 1.70035e+07ns
Time taken: 0.0484695 seconds
Path Nodes: 2503
Path Distance: 2380
Destroyed Planner
Testing 32 Threads and 5,000 samples
Input file: /jet/home/ppareek/15418-Final-Project/maps/tests/size/Medium.txt
Output file: /jet/home/ppareek/15418-Final-Project/paths/tests/size/Medium_32_5000.txt
Start: 0,0
Goal: 999,999
Number of samples: 5000
Number of threads: 32
Loading map from file: /jet/home/ppareek/15418-Final-Project/maps/tests/size/Medium.txt
Created Planner
Using Boost 1.66.0
Planning
Sampling 5000 points
Map width: 1000
Map height: 1000
Generation time: 1.57677e+07ns
Connection time: 1.75667e+07ns
Starting A*
All threads exited
No Path Found
No path found. Planning Failed.
Query failed
Time taken: 0.0334585 seconds
Path Nodes: 0
Path Distance: 0
Destroyed Planner
Testing 64 Threads and 5,000 samples
Input file: /jet/home/ppareek/15418-Final-Project/maps/tests/size/Medium.txt
Output file: /jet/home/ppareek/15418-Final-Project/paths/tests/size/Medium_64_5000.txt
Start: 0,0
Goal: 999,999
Number of samples: 5000
Number of threads: 64
Loading map from file: /jet/home/ppareek/15418-Final-Project/maps/tests/size/Medium.txt
Created Planner
Using Boost 1.66.0
Planning
Sampling 5000 points
Map width: 1000
Map height: 1000
Generation time: 3.51674e+07ns
Connection time: 2.78042e+07ns
Starting A*
5001
We have Reached the Goal!!!
All threads exited
Path Found
Query time: 6.99152e+07ns
Time taken: 0.132998 seconds
Path Nodes: 2534
Path Distance: 2404
Destroyed Planner
Testing 128 Threads and 5,000 samples
Input file: /jet/home/ppareek/15418-Final-Project/maps/tests/size/Medium.txt
Output file: /jet/home/ppareek/15418-Final-Project/paths/tests/size/Medium_128_5000.txt
Start: 0,0
Goal: 999,999
Number of samples: 5000
Number of threads: 128
Loading map from file: /jet/home/ppareek/15418-Final-Project/maps/tests/size/Medium.txt
Created Planner
Using Boost 1.66.0
Planning
Sampling 5000 points
Map width: 1000
Map height: 1000
Generation time: 4.08053e+07ns
Connection time: 2.80346e+07ns
Starting A*
5001
We have Reached the Goal!!!
All threads exited
Path Found
Query time: 1.89209e+08ns
Time taken: 0.258153 seconds
Path Nodes: 2765
Path Distance: 2628
Destroyed Planner
--------------------------------------------------------------------------------
Testing 1 Threads and 10,000 samples
Input file: /jet/home/ppareek/15418-Final-Project/maps/tests/size/Medium.txt
Output file: /jet/home/ppareek/15418-Final-Project/paths/tests/size/Medium_1_10000.txt
Start: 0,0
Goal: 999,999
Number of samples: 10000
Number of threads: 1
Loading map from file: /jet/home/ppareek/15418-Final-Project/maps/tests/size/Medium.txt
Created Planner
Using Boost 1.66.0
Planning
Sampling 10000 points
Map width: 1000
Map height: 1000
Generation time: 1.1185e+06ns
Connection time: 2.82664e+08ns
Starting A*
10001
We have Reached the Goal!!!
All threads exited
Path Found
Query time: 4.44612e+07ns
Time taken: 0.328307 seconds
Path Nodes: 2118
Path Distance: 2008
Destroyed Planner
Testing 2 Threads and 10,000 samples
Input file: /jet/home/ppareek/15418-Final-Project/maps/tests/size/Medium.txt
Output file: /jet/home/ppareek/15418-Final-Project/paths/tests/size/Medium_2_10000.txt
Start: 0,0
Goal: 999,999
Number of samples: 10000
Number of threads: 2
Loading map from file: /jet/home/ppareek/15418-Final-Project/maps/tests/size/Medium.txt
Created Planner
Using Boost 1.66.0
Planning
Sampling 10000 points
Map width: 1000
Map height: 1000
Generation time: 4.15883e+06ns
Connection time: 2.18033e+08ns
Starting A*
10001
We have Reached the Goal!!!
All threads exited
Path Found
Query time: 8.8425e+07ns
Time taken: 0.310678 seconds
Path Nodes: 2241
Path Distance: 2124
Destroyed Planner
Testing 4 Threads and 10,000 samples
Input file: /jet/home/ppareek/15418-Final-Project/maps/tests/size/Medium.txt
Output file: /jet/home/ppareek/15418-Final-Project/paths/tests/size/Medium_4_10000.txt
Start: 0,0
Goal: 999,999
Number of samples: 10000
Number of threads: 4
Loading map from file: /jet/home/ppareek/15418-Final-Project/maps/tests/size/Medium.txt
Created Planner
Using Boost 1.66.0
Planning
Sampling 10000 points
Map width: 1000
Map height: 1000
Generation time: 7.35428e+06ns
Connection time: 1.52982e+08ns
Starting A*
10001
We have Reached the Goal!!!
All threads exited
Path Found
Query time: 1.15301e+08ns
Time taken: 0.275692 seconds
Path Nodes: 2167
Path Distance: 2054
Destroyed Planner
Testing 8 Threads and 10,000 samples
Input file: /jet/home/ppareek/15418-Final-Project/maps/tests/size/Medium.txt
Output file: /jet/home/ppareek/15418-Final-Project/paths/tests/size/Medium_8_10000.txt
Start: 0,0
Goal: 999,999
Number of samples: 10000
Number of threads: 8
Loading map from file: /jet/home/ppareek/15418-Final-Project/maps/tests/size/Medium.txt
Created Planner
Using Boost 1.66.0
Planning
Sampling 10000 points
Map width: 1000
Map height: 1000
Generation time: 1.61343e+07ns
Connection time: 1.20299e+08ns
Starting A*
10001
We have Reached the Goal!!!
All threads exited
Path Found
Query time: 4.84755e+07ns
Time taken: 0.184953 seconds
Path Nodes: 2206
Path Distance: 2090
Destroyed Planner
Testing 16 Threads and 10,000 samples
Input file: /jet/home/ppareek/15418-Final-Project/maps/tests/size/Medium.txt
Output file: /jet/home/ppareek/15418-Final-Project/paths/tests/size/Medium_16_10000.txt
Start: 0,0
Goal: 999,999
Number of samples: 10000
Number of threads: 16
Loading map from file: /jet/home/ppareek/15418-Final-Project/maps/tests/size/Medium.txt
Created Planner
Using Boost 1.66.0
Planning
Sampling 10000 points
Map width: 1000
Map height: 1000
Generation time: 1.81116e+07ns
Connection time: 1.02762e+08ns
Starting A*
10001
We have Reached the Goal!!!
All threads exited
Path Found
Query time: 7.22782e+07ns
Time taken: 0.193224 seconds
Path Nodes: 2351
Path Distance: 2228
Destroyed Planner
Testing 32 Threads and 10,000 samples
Input file: /jet/home/ppareek/15418-Final-Project/maps/tests/size/Medium.txt
Output file: /jet/home/ppareek/15418-Final-Project/paths/tests/size/Medium_32_10000.txt
Start: 0,0
Goal: 999,999
Number of samples: 10000
Number of threads: 32
Loading map from file: /jet/home/ppareek/15418-Final-Project/maps/tests/size/Medium.txt
Created Planner
[...]
Map width: 500
Map height: 500
Generation time: 6.00723e+06ns
Connection time: 7.06442e+07ns
Starting A*
5001
We have Reached the Goal!!!
All threads exited
Path Found
Query time: 5.60963e+07ns
Time taken: 0.132804 seconds
Path Nodes: 1055
Path Distance: 998
Destroyed Planner
Testing 32 Threads and 5,000 samples
Input file: /jet/home/ppareek/15418-Final-Project/maps/tests/size/Small.txt
Output file: /jet/home/ppareek/15418-Final-Project/paths/tests/size/Small_32_5000.txt
Start: 0,0
Goal: 499,499
Number of samples: 5000
Number of threads: 32
Loading map from file: /jet/home/ppareek/15418-Final-Project/maps/tests/size/Small.txt
Created Planner
Using Boost 1.66.0
Planning
Sampling 5000 points
Map width: 500
Map height: 500
Generation time: 7.45726e+06ns
Connection time: 5.0307e+07ns
Starting A*
5001
We have Reached the Goal!!!
All threads exited
Path Found
Query time: 3.30139e+07ns
Time taken: 0.091049 seconds
Path Nodes: 1065
Path Distance: 1008
Destroyed Planner
Testing 64 Threads and 5,000 samples
Input file: /jet/home/ppareek/15418-Final-Project/maps/tests/size/Small.txt
Output file: /jet/home/ppareek/15418-Final-Project/paths/tests/size/Small_64_5000.txt
Start: 0,0
Goal: 499,499
Number of samples: 5000
Number of threads: 64
Loading map from file: /jet/home/ppareek/15418-Final-Project/maps/tests/size/Small.txt
Created Planner
Using Boost 1.66.0
Planning
Sampling 5000 points
Map width: 500
Map height: 500
Generation time: 2.10703e+07ns
Connection time: 5.33204e+07ns
Starting A*
5001
We have Reached the Goal!!!
All threads exited
Path Found
Query time: 2.41577e+07ns
Time taken: 0.0986048 seconds
Path Nodes: 1057
Path Distance: 1002
Destroyed Planner
Testing 128 Threads and 5,000 samples
Input file: /jet/home/ppareek/15418-Final-Project/maps/tests/size/Small.txt
Output file: /jet/home/ppareek/15418-Final-Project/paths/tests/size/Small_128_5000.txt
Start: 0,0
Goal: 499,499
Number of samples: 5000
Number of threads: 128
Loading map from file: /jet/home/ppareek/15418-Final-Project/maps/tests/size/Small.txt
Created Planner
Using Boost 1.66.0
Planning
Sampling 5000 points
Map width: 500
Map height: 500
Generation time: 3.99016e+07ns
Connection time: 1.36228e+08ns
Starting A*
5001
We have Reached the Goal!!!
All threads exited
Path Found
Query time: 8.93708e+07ns
Time taken: 0.265729 seconds
Path Nodes: 1070
Path Distance: 1012
Destroyed Planner
--------------------------------------------------------------------------------
Done.
Testing /jet/home/ppareek/15418-Final-Project/scripts/test_scripts/test_sparse.sh
----------------------------------- Testing Sparse -----------------------------------
Testing 1 Thread and 5,000 samples
Input file: /jet/home/ppareek/15418-Final-Project/maps/tests/density/Sparse.txt
Output file: /jet/home/ppareek/15418-Final-Project/paths/tests/density/Sparse_1_5000.txt
Start: 0,0
Goal: 999,999
Number of samples: 5000
Number of threads: 1
Loading map from file: /jet/home/ppareek/15418-Final-Project/maps/tests/density/Sparse.txt
Created Planner
Using Boost 1.66.0
Planning
Sampling 5000 points
Map width: 1000
Map height: 1000
Generation time: 524528ns
Connection time: 6.89754e+07ns
Starting A*
5001
We have Reached the Goal!!!
All threads exited
Path Found
Query time: 3.01106e+06ns
Time taken: 0.0725489 seconds
Path Nodes: 2135
Path Distance: 2024
Destroyed Planner
Testing 2 Threads and 5,000 samples
Input file: /jet/home/ppareek/15418-Final-Project/maps/tests/density/Sparse.txt
Output file: /jet/home/ppareek/15418-Final-Project/paths/tests/density/Sparse_2_5000.txt
Start: 0,0
Goal: 999,999
Number of samples: 5000
Number of threads: 2
Loading map from file: /jet/home/ppareek/15418-Final-Project/maps/tests/density/Sparse.txt
Created Planner
Using Boost 1.66.0
Planning
Sampling 5000 points
Map width: 1000
Map height: 1000
Generation time: 2.17708e+06ns
Connection time: 5.15079e+07ns
Starting A*
5001
We have Reached the Goal!!!
All threads exited
Path Found
Query time: 1.37042e+07ns
Time taken: 0.0674439 seconds
Path Nodes: 2429
Path Distance: 2304
Destroyed Planner
Testing 4 Threads and 5,000 samples
Input file: /jet/home/ppareek/15418-Final-Project/maps/tests/density/Sparse.txt
Output file: /jet/home/ppareek/15418-Final-Project/paths/tests/density/Sparse_4_5000.txt
Start: 0,0
Goal: 999,999
Number of samples: 5000
Number of threads: 4
Loading map from file: /jet/home/ppareek/15418-Final-Project/maps/tests/density/Sparse.txt
Created Planner
Using Boost 1.66.0
Planning
Sampling 5000 points
Map width: 1000
Map height: 1000
Generation time: 3.58489e+06ns
Connection time: 3.58907e+07ns
Starting A*
5001
We have Reached the Goal!!!
All threads exited
Path Found
Query time: 2.40366e+07ns
Time taken: 0.0635474 seconds
Path Nodes: 2408
Path Distance: 2286
Destroyed Planner
Testing 8 Threads and 5,000 samples
Input file: /jet/home/ppareek/15418-Final-Project/maps/tests/density/Sparse.txt
Output file: /jet/home/ppareek/15418-Final-Project/paths/tests/density/Sparse_8_5000.txt
Start: 0,0
Goal: 999,999
Number of samples: 5000
Number of threads: 8
Loading map from file: /jet/home/ppareek/15418-Final-Project/maps/tests/density/Sparse.txt
Created Planner
Using Boost 1.66.0
Planning
Sampling 5000 points
Map width: 1000
Map height: 1000
Generation time: 7.04284e+06ns
Connection time: 2.71114e+07ns
Starting A*
All threads exited
No Path Found
No path found. Planning Failed.
Query failed
Time taken: 0.0546023 seconds
Path Nodes: 0
Path Distance: 0
Destroyed Planner
Testing 16 Threads and 5,000 samples
Input file: /jet/home/ppareek/15418-Final-Project/maps/tests/density/Sparse.txt
Output file: /jet/home/ppareek/15418-Final-Project/paths/tests/density/Sparse_16_5000.txt
Start: 0,0
Goal: 999,999
Number of samples: 5000
Number of threads: 16
Loading map from file: /jet/home/ppareek/15418-Final-Project/maps/tests/density/Sparse.txt
Created Planner
Using Boost 1.66.0
Planning
Sampling 5000 points
Map width: 1000
Map height: 1000
Generation time: 8.33526e+06ns
Connection time: 2.19562e+07ns
Starting A*
All threads exited
No Path Found
No path found. Planning Failed.
Query failed
Time taken: 0.0303981 seconds
Path Nodes: 0
Path Distance: 0
Destroyed Planner
Testing 32 Threads and 5,000 samples
Input file: /jet/home/ppareek/15418-Final-Project/maps/tests/density/Sparse.txt
Output file: /jet/home/ppareek/15418-Final-Project/paths/tests/density/Sparse_32_5000.txt
Start: 0,0
Goal: 999,999
Number of samples: 5000
Number of threads: 32
Loading map from file: /jet/home/ppareek/15418-Final-Project/maps/tests/density/Sparse.txt
Created Planner
Using Boost 1.66.0
Planning
Sampling 5000 points
Map width: 1000
Map height: 1000
Generation time: 1.35035e+07ns
Connection time: 1.43364e+07ns
Starting A*
All threads exited
No Path Found
No path found. Planning Failed.
Query failed
Time taken: 0.0280108 seconds
Path Nodes: 0
Path Distance: 0
Destroyed Planner
Testing 64 Threads and 5,000 samples
Input file: /jet/home/ppareek/15418-Final-Project/maps/tests/density/Sparse.txt
Output file: /jet/home/ppareek/15418-Final-Project/paths/tests/density/Sparse_64_5000.txt
Start: 0,0
Goal: 999,999
Number of samples: 5000
Number of threads: 64
Loading map from file: /jet/home/ppareek/15418-Final-Project/maps/tests/density/Sparse.txt
Created Planner
Using Boost 1.66.0
Planning
Sampling 5000 points
Map width: 1000
Map height: 1000
Generation time: 2.89475e+07ns
Connection time: 2.39979e+07ns
Starting A*
5001
We have Reached the Goal!!!
All threads exited
Path Found
Query time: 7.83945e+07ns
Time taken: 0.131443 seconds
Path Nodes: 2428
Path Distance: 2306
Destroyed Planner
Testing 128 Threads and 5,000 samples
Input file: /jet/home/ppareek/15418-Final-Project/maps/tests/density/Sparse.txt
Output file: /jet/home/ppareek/15418-Final-Project/paths/tests/density/Sparse_128_5000.txt
Start: 0,0
Goal: 999,999
Number of samples: 5000
Number of threads: 128
Loading map from file: /jet/home/ppareek/15418-Final-Project/maps/tests/density/Sparse.txt
Created Planner
Using Boost 1.66.0
Planning
Sampling 5000 points
Map width: 1000
Map height: 1000
Generation time: 3.85043e+07ns
Connection time: 2.11456e+07ns
Starting A*
5001
We have Reached the Goal!!!
All threads exited
Path Found
Query time: 5.28788e+08ns
Time taken: 0.588675 seconds
Path Nodes: 2332
Path Distance: 2214
Destroyed Planner
--------------------------------------------------------------------------------
Testing 1 Threads and 10,000 samples
Input file: /jet/home/ppareek/15418-Final-Project/maps/tests/density/Sparse.txt
Output file: /jet/home/ppareek/15418-Final-Project/paths/tests/density/Sparse_1_10000.txt
Start: 0,0
Goal: 999,999
Number of samples: 10000
Number of threads: 1
Loading map from file: /jet/home/ppareek/15418-Final-Project/maps/tests/density/Sparse.txt
Created Planner
Using Boost 1.66.0
Planning
Sampling 10000 points
Map width: 1000
Map height: 1000
Generation time: 978732ns
Connection time: 2.7811e+08ns
Starting A*
All threads exited
No Path Found
No path found. Planning Failed.
Query failed
Time taken: 0.279227 seconds
Path Nodes: 0
Path Distance: 0
Destroyed Planner
Testing 2 Threads and 10,000 samples
Input file: /jet/home/ppareek/15418-Final-Project/maps/tests/density/Sparse.txt
Output file: /jet/home/ppareek/15418-Final-Project/paths/tests/density/Sparse_2_10000.txt
Start: 0,0
Goal: 999,999
Number of samples: 10000
Number of threads: 2
Loading map from file: /jet/home/ppareek/15418-Final-Project/maps/tests/density/Sparse.txt
Created Planner
Using Boost 1.66.0
Planning
Sampling 10000 points
Map width: 1000
Map height: 1000
Generation time: 3.95145e+06ns
Connection time: 2.04338e+08ns
Starting A*
10001
We have Reached the Goal!!!
All threads exited
Path Found
Query time: 5.96093e+07ns
Time taken: 0.26796 seconds
Path Nodes: 2158
Path Distance: 2050
Destroyed Planner
Testing 4 Threads and 10,000 samples
Input file: /jet/home/ppareek/15418-Final-Project/maps/tests/density/Sparse.txt
Output file: /jet/home/ppareek/15418-Final-Project/paths/tests/density/Sparse_4_10000.txt
Start: 0,0
Goal: 999,999
Number of samples: 10000
Number of threads: 4
Loading map from file: /jet/home/ppareek/15418-Final-Project/maps/tests/density/Sparse.txt
Created Planner
Using Boost 1.66.0
Planning
Sampling 10000 points
Map width: 1000
Map height: 1000
Generation time: 4.82566e+06ns
Connection time: 1.42146e+08ns
Starting A*
10001
We have Reached the Goal!!!
All threads exited
Path Found
Query time: 6.45812e+07ns
Time taken: 0.211601 seconds
Path Nodes: 2115
Path Distance: 2004
Destroyed Planner
Testing 8 Threads and 10,000 samples
Input file: /jet/home/ppareek/15418-Final-Project/maps/tests/density/Sparse.txt
Output file: /jet/home/ppareek/15418-Final-Project/paths/tests/density/Sparse_8_10000.txt
Start: 0,0
Goal: 999,999
Number of samples: 10000
Number of threads: 8
Loading map from file: /jet/home/ppareek/15418-Final-Project/maps/tests/density/Sparse.txt
Created Planner
Using Boost 1.66.0
Planning
Sampling 10000 points
Map width: 1000
Map height: 1000
Generation time: 9.11753e+06ns
Connection time: 1.09115e+08ns
Starting A*
10001
We have Reached the Goal!!!
All threads exited
Path Found
Query time: 5.46371e+07ns
Time taken: 0.172916 seconds
Path Nodes: 2105
Path Distance: 1998
Destroyed Planner
Testing 16 Threads and 10,000 samples
Input file: /jet/home/ppareek/15418-Final-Project/maps/tests/density/Sparse.txt
Output file: /jet/home/ppareek/15418-Final-Project/paths/tests/density/Sparse_16_10000.txt
Start: 0,0
Goal: 999,999
Number of samples: 10000
Number of threads: 16
Loading map from file: /jet/home/ppareek/15418-Final-Project/maps/tests/density/Sparse.txt
Created Planner
Using Boost 1.66.0
Planning
Sampling 10000 points
Map width: 1000
Map height: 1000
Generation time: 1.14001e+07ns
Connection time: 9.164e+07ns
Starting A*
10001
We have Reached the Goal!!!
All threads exited
Path Found
Query time: 4.37103e+07ns
Time taken: 0.146823 seconds
Path Nodes: 2105
Path Distance: 1998
Destroyed Planner
Testing 32 Threads and 10,000 samples
Input file: /jet/home/ppareek/15418-Final-Project/maps/tests/density/Sparse.txt
Output file: /jet/home/ppareek/15418-Final-Project/paths/tests/density/Sparse_32_10000.txt
Start: 0,0
Goal: 999,999
Number of samples: 10000
Number of threads: 32
Loading map from file: /jet/home/ppareek/15418-Final-Project/maps/tests/density/Sparse.txt
Created Planner
Using Boost 1.66.0
Planning
Sampling 10000 points
Map width: 1000
Map height: 1000
Generation time: 1.25905e+07ns
Connection time: 6.52584e+07ns
Starting A*
10001
We have Reached the Goal!!!
All threads exited
Path Found
Query time: 2.11955e+07ns
Time taken: 0.0991145 seconds
Path Nodes: 2119
Path Distance: 2012
Destroyed Planner
Testing 64 Threads and 10,000 samples
Input file: /jet/home/ppareek/15418-Final-Project/maps/tests/density/Sparse.txt
Output file: /jet/home/ppareek/15418-Final-Project/paths/tests/density/Sparse_64_10000.txt
Start: 0,0
Goal: 999,999
Number of samples: 10000
Number of threads: 64
Loading map from file: /jet/home/ppareek/15418-Final-Project/maps/tests/density/Sparse.txt
Created Planner
Using Boost 1.66.0
Planning
Sampling 10000 points
Map width: 1000
Map height: 1000
Generation time: 2.81773e+07ns
Connection time: 6.01161e+07ns
Starting A*
10001
We have Reached the Goal!!!
All threads exited
Path Found
Query time: 1.87596e+07ns
Time taken: 0.107173 seconds
Path Nodes: 2162
Path Distance: 2052
Destroyed Planner
Testing 128 Threads and 10,000 samples
Input file: /jet/home/ppareek/15418-Final-Project/maps/tests/density/Sparse.txt
Output file: /jet/home/ppareek/15418-Final-Project/paths/tests/density/Sparse_128_10000.txt
Start: 0,0
Goal: 999,999
Number of samples: 10000
Number of threads: 128
Loading map from file: /jet/home/ppareek/15418-Final-Project/maps/tests/density/Sparse.txt
Created Planner
Using Boost 1.66.0
Planning
Sampling 10000 points
Map width: 1000
Map height: 1000
Generation time: 3.86027e+07ns
Connection time: 7.76569e+07ns
Starting A*
10001
We have Reached the Goal!!!
All threads exited
Path Found
Query time: 1.7168e+08ns
Time taken: 0.288027 seconds
Path Nodes: 2175
Path Distance: 2064
Destroyed Planner
--------------------------------------------------------------------------------
Testing 1 Threads and 20,000 samples
Input file: /jet/home/ppareek/15418-Final-Project/maps/tests/density/Sparse.txt
Output file: /jet/home/ppareek/15418-Final-Project/paths/tests/density/Sparse_1_20000.txt
Start: 0,0
Goal: 999,999
Number of samples: 20000
Number of threads: 1
Loading map from file: /jet/home/ppareek/15418-Final-Project/maps/tests/density/Sparse.txt
Created Planner
Using Boost 1.66.0
Planning
Sampling 20000 points
Map width: 1000
Map height: 1000
Generation time: 2.10148e+06ns
Connection time: 1.12483e+09ns
Starting A*
20001
We have Reached the Goal!!!
All threads exited
Path Found
Query time: 2.91417e+07ns
Time taken: 1.15613 seconds
Path Nodes: 2111
Path Distance: 1998
Destroyed Planner
Testing 2 Threads and 20,000 samples
Input file: /jet/home/ppareek/15418-Final-Project/maps/tests/density/Sparse.txt
Output file: /jet/home/ppareek/15418-Final-Project/paths/tests/density/Sparse_2_20000.txt
Start: 0,0
Goal: 999,999
Number of samples: 20000
Number of threads: 2
Loading map from file: /jet/home/ppareek/15418-Final-Project/maps/tests/density/Sparse.txt
Created Planner
Using Boost 1.66.0
Planning
Sampling 20000 points
Map width: 1000
Map height: 1000
Generation time: 6.74643e+06ns
Connection time: 8.03532e+08ns
Starting A*
20001
We have Reached the Goal!!!
All threads exited
Path Found
Query time: 1.89076e+08ns
Time taken: 0.999439 seconds
Path Nodes: 2110
Path Distance: 1998
Destroyed Planner
Testing 4 Threads and 20,000 samples
Input file: /jet/home/ppareek/15418-Final-Project/maps/tests/density/Sparse.txt
Output file: /jet/home/ppareek/15418-Final-Project/paths/tests/density/Sparse_4_20000.txt
Start: 0,0
Goal: 999,999
Number of samples: 20000
Number of threads: 4
Loading map from file: /jet/home/ppareek/15418-Final-Project/maps/tests/density/Sparse.txt
Created Planner
Using Boost 1.66.0
Planning
Sampling 20000 points
Map width: 1000
Map height: 1000
Generation time: 1.69865e+07ns
Connection time: 5.55513e+08ns
Starting A*
20001
We have Reached the Goal!!!
All threads exited
Path Found
Query time: 1.97423e+07ns
Time taken: 0.592305 seconds
Path Nodes: 2221
Path Distance: 2104
Destroyed Planner
Testing 8 Threads and 20,000 samples
Input file: /jet/home/ppareek/15418-Final-Project/maps/tests/density/Sparse.txt
Output file: /jet/home/ppareek/15418-Final-Project/paths/tests/density/Sparse_8_20000.txt
Start: 0,0
Goal: 999,999
Number of samples: 20000
Number of threads: 8
Loading map from file: /jet/home/ppareek/15418-Final-Project/maps/tests/density/Sparse.txt
Created Planner
Using Boost 1.66.0
Planning
Sampling 20000 points
Map width: 1000
Map height: 1000
Generation time: 1.61281e+07ns
Connection time: 4.07533e+08ns
Starting A*
20001
We have Reached the Goal!!!
All threads exited
Path Found
Query time: 9.07991e+07ns
Time taken: 0.514514 seconds
Path Nodes: 2112
Path Distance: 2000
Destroyed Planner
Testing 16 Threads and 20,000 samples
Input file: /jet/home/ppareek/15418-Final-Project/maps/tests/density/Sparse.txt
Output file: /jet/home/ppareek/15418-Final-Project/paths/tests/density/Sparse_16_20000.txt
Start: 0,0
Goal: 999,999
Number of samples: 20000
Number of threads: 16
Loading map from file: /jet/home/ppareek/15418-Final-Project/maps/tests/density/Sparse.txt
Created Planner
Using Boost 1.66.0
Planning
Sampling 20000 points
Map width: 1000
Map height: 1000
Generation time: 2.90253e+07ns
Connection time: 3.80694e+08ns
Starting A*
20001
We have Reached the Goal!!!
All threads exited
Path Found
Query time: 1.80128e+08ns
Time taken: 0.589924 seconds
Path Nodes: 2107
Path Distance: 1998
Destroyed Planner
Testing 32 Threads and 20,000 samples
Input file: /jet/home/ppareek/15418-Final-Project/maps/tests/density/Sparse.txt
Output file: /jet/home/ppareek/15418-Final-Project/paths/tests/density/Sparse_32_20000.txt
Start: 0,0
Goal: 999,999
Number of samples: 20000
Number of threads: 32
Loading map from file: /jet/home/ppareek/15418-Final-Project/maps/tests/density/Sparse.txt
Created Planner
Using Boost 1.66.0
Planning
Sampling 20000 points
Map width: 1000
Map height: 1000
Generation time: 2.99631e+07ns
Connection time: 2.57643e+08ns
Starting A*
20001
We have Reached the Goal!!!
All threads exited
Path Found
Query time: 1.10065e+08ns
Time taken: 0.397735 seconds
Path Nodes: 2105
Path Distance: 1998
Destroyed Planner
Testing 64 Threads and 20,000 samples
Input file: /jet/home/ppareek/15418-Final-Project/maps/tests/density/Sparse.txt
Output file: /jet/home/ppareek/15418-Final-Project/paths/tests/density/Sparse_64_20000.txt
Start: 0,0
Goal: 999,999
Number of samples: 20000
Number of threads: 64
Loading map from file: /jet/home/ppareek/15418-Final-Project/maps/tests/density/Sparse.txt
Created Planner
Using Boost 1.66.0
Planning
Sampling 20000 points
Map width: 1000
Map height: 1000
Generation time: 2.92399e+07ns
Connection time: 2.19108e+08ns
Starting A*
20001
We have Reached the Goal!!!
All threads exited
Path Found
Query time: 4.49818e+07ns
Time taken: 0.293407 seconds
Path Nodes: 2112
Path Distance: 2002
Destroyed Planner
Testing 128 Threads and 20,000 samples
Input file: /jet/home/ppareek/15418-Final-Project/maps/tests/density/Sparse.txt
Output file: /jet/home/ppareek/15418-Final-Project/paths/tests/density/Sparse_128_20000.txt
Start: 0,0
Goal: 999,999
Number of samples: 20000
Number of threads: 128
Loading map from file: /jet/home/ppareek/15418-Final-Project/maps/tests/density/Sparse.txt
Created Planner
Using Boost 1.66.0
Planning
Sampling 20000 points
Map width: 1000
Map height: 1000
Generation time: 5.66037e+07ns
Connection time: 3.1871e+08ns
Starting A*
20001
We have Reached the Goal!!!
All threads exited
Path Found
Query time: 1.27368e+08ns
Time taken: 0.502773 seconds
Path Nodes: 2106
Path Distance: 2000
Destroyed Planner
--------------------------------------------------------------------------------
Done.
