Testing all maps
================
Testing /jet/home/ppareek/15418-Final-Project/scripts/test_scripts/test_dense.sh
----------------------------------- Testing Dense -----------------------------------
Testing 1 Thread and 5,000 samples
Input file: /jet/home/ppareek/15418-Final-Project/maps/tests/density/Dense.txt
Output file: /jet/home/ppareek/15418-Final-Project/paths/tests/density/Dense_1_5000.txt
Start: 0,0
Goal: 999,999
Number of samples: 5000
Number of threads: 1
Loading map from file: /jet/home/ppareek/15418-Final-Project/maps/tests/density/Dense.txt
Created Planner
Using Boost 1.66.0
Planning
Sampling 5000 points
Map width: 1000
Map height: 1000
Generation time: 657673ns
Connection time: 7.23552e+07ns
Starting A*
5001
We have Reached the Goal!!!
All threads exited
Path Found
Query time: 1.12689e+07ns
Time taken: 0.0843334 seconds
Path Nodes: 2192
Path Distance: 2076
Destroyed Planner
Testing 2 Threads and 5,000 samples
Input file: /jet/home/ppareek/15418-Final-Project/maps/tests/density/Dense.txt
Output file: /jet/home/ppareek/15418-Final-Project/paths/tests/density/Dense_2_5000.txt
Start: 0,0
Goal: 999,999
Number of samples: 5000
Number of threads: 2
Loading map from file: /jet/home/ppareek/15418-Final-Project/maps/tests/density/Dense.txt
Created Planner
Using Boost 1.66.0
Planning
Sampling 5000 points
Map width: 1000
Map height: 1000
Generation time: 2.67841e+06ns
Connection time: 6.84981e+07ns
Starting A*
All threads exited
No Path Found
No path found. Planning Failed.
Query failed
Time taken: 0.09649 seconds
Path Nodes: 0
Path Distance: 0
Destroyed Planner
Testing 4 Threads and 5,000 samples
Input file: /jet/home/ppareek/15418-Final-Project/maps/tests/density/Dense.txt
Output file: /jet/home/ppareek/15418-Final-Project/paths/tests/density/Dense_4_5000.txt
Start: 0,0
Goal: 999,999
Number of samples: 5000
Number of threads: 4
Loading map from file: /jet/home/ppareek/15418-Final-Project/maps/tests/density/Dense.txt
Created Planner
Using Boost 1.66.0
Planning
Sampling 5000 points
Map width: 1000
Map height: 1000
Generation time: 6.2861e+06ns
Connection time: 6.19373e+07ns
Starting A*
5001
We have Reached the Goal!!!
All threads exited
Path Found
Query time: 3.94163e+07ns
Time taken: 0.107682 seconds
Path Nodes: 2885
Path Distance: 2732
Destroyed Planner
Testing 8 Threads and 5,000 samples
Input file: /jet/home/ppareek/15418-Final-Project/maps/tests/density/Dense.txt
Output file: /jet/home/ppareek/15418-Final-Project/paths/tests/density/Dense_8_5000.txt
Start: 0,0
Goal: 999,999
Number of samples: 5000
Number of threads: 8
Loading map from file: /jet/home/ppareek/15418-Final-Project/maps/tests/density/Dense.txt
Created Planner
Using Boost 1.66.0
Planning
Sampling 5000 points
Map width: 1000
Map height: 1000
Generation time: 7.40156e+06ns
Connection time: 6.0446e+07ns
Starting A*
5001
We have Reached the Goal!!!
All threads exited
Path Found
Query time: 1.76992e+07ns
Time taken: 0.0855906 seconds
Path Nodes: 2453
Path Distance: 2320
Destroyed Planner
Testing 16 Threads and 5,000 samples
Input file: /jet/home/ppareek/15418-Final-Project/maps/tests/density/Dense.txt
Output file: /jet/home/ppareek/15418-Final-Project/paths/tests/density/Dense_16_5000.txt
Start: 0,0
Goal: 999,999
Number of samples: 5000
Number of threads: 16
Loading map from file: /jet/home/ppareek/15418-Final-Project/maps/tests/density/Dense.txt
Created Planner
Using Boost 1.66.0
Planning
Sampling 5000 points
Map width: 1000
Map height: 1000
Generation time: 1.47711e+07ns
Connection time: 7.30919e+07ns
Starting A*
All threads exited
No Path Found
No path found. Planning Failed.
Query failed
Time taken: 0.103334 seconds
Path Nodes: 0
Path Distance: 0
Destroyed Planner
Testing 32 Threads and 5,000 samples
Input file: /jet/home/ppareek/15418-Final-Project/maps/tests/density/Dense.txt
Output file: /jet/home/ppareek/15418-Final-Project/paths/tests/density/Dense_32_5000.txt
Start: 0,0
Goal: 999,999
Number of samples: 5000
Number of threads: 32
Loading map from file: /jet/home/ppareek/15418-Final-Project/maps/tests/density/Dense.txt
Created Planner
Using Boost 1.66.0
Planning
Sampling 5000 points
Map width: 1000
Map height: 1000
Generation time: 1.08865e+07ns
Connection time: 6.59252e+07ns
Starting A*
5001
We have Reached the Goal!!!
All threads exited
Path Found
Query time: 1.59925e+07ns
Time taken: 0.0928749 seconds
Path Nodes: 2325
Path Distance: 2206
Destroyed Planner
Testing 64 Threads and 5,000 samples
Input file: /jet/home/ppareek/15418-Final-Project/maps/tests/density/Dense.txt
Output file: /jet/home/ppareek/15418-Final-Project/paths/tests/density/Dense_64_5000.txt
Start: 0,0
Goal: 999,999
Number of samples: 5000
Number of threads: 64
Loading map from file: /jet/home/ppareek/15418-Final-Project/maps/tests/density/Dense.txt
Created Planner
Using Boost 1.66.0
Planning
Sampling 5000 points
Map width: 1000
Map height: 1000
Generation time: 2.17316e+07ns
Connection time: 5.94558e+07ns
Starting A*
5001
We have Reached the Goal!!!
All threads exited
Path Found
Query time: 9.67454e+06ns
Time taken: 0.090927 seconds
Path Nodes: 2312
Path Distance: 2196
Destroyed Planner
Testing 128 Threads and 5,000 samples
Input file: /jet/home/ppareek/15418-Final-Project/maps/tests/density/Dense.txt
Output file: /jet/home/ppareek/15418-Final-Project/paths/tests/density/Dense_128_5000.txt
Start: 0,0
Goal: 999,999
Number of samples: 5000
Number of threads: 128
Loading map from file: /jet/home/ppareek/15418-Final-Project/maps/tests/density/Dense.txt
Created Planner
Using Boost 1.66.0
Planning
Sampling 5000 points
Map width: 1000
Map height: 1000
Generation time: 3.58567e+07ns
Connection time: 8.0787e+07ns
Starting A*
5001
We have Reached the Goal!!!
All threads exited
Path Found
Query time: 3.17744e+08ns
Time taken: 0.434515 seconds
Path Nodes: 2284
Path Distance: 2168
Destroyed Planner
--------------------------------------------------------------------------------
Testing 1 Threads and 10,000 samples
Input file: /jet/home/ppareek/15418-Final-Project/maps/tests/density/Dense.txt
Output file: /jet/home/ppareek/15418-Final-Project/paths/tests/density/Dense_1_110000.txt
Start: 0,0
Goal: 999,999
Number of samples: 10000
Number of threads: 1
Loading map from file: /jet/home/ppareek/15418-Final-Project/maps/tests/density/Dense.txt
Created Planner
Using Boost 1.66.0
Planning
Sampling 10000 points
Map width: 1000
Map height: 1000
Generation time: 1.54598e+06ns
Connection time: 2.94271e+08ns
Starting A*
10001
We have Reached the Goal!!!
All threads exited
Path Found
Query time: 2.08638e+07ns
Time taken: 0.316756 seconds
Path Nodes: 2110
Path Distance: 1998
Destroyed Planner
Testing 2 Threads and 10,000 samples
Input file: /jet/home/ppareek/15418-Final-Project/maps/tests/density/Dense.txt
Output file: /jet/home/ppareek/15418-Final-Project/paths/tests/density/Dense_2_110000.txt
Start: 0,0
Goal: 999,999
Number of samples: 10000
Number of threads: 2
Loading map from file: /jet/home/ppareek/15418-Final-Project/maps/tests/density/Dense.txt
Created Planner
Using Boost 1.66.0
Planning
Sampling 10000 points
Map width: 1000
Map height: 1000
Generation time: 5.44949e+06ns
Connection time: 2.84266e+08ns
Starting A*
10001
We have Reached the Goal!!!
All threads exited
Path Found
Query time: 9.57948e+07ns
Time taken: 0.385587 seconds
Path Nodes: 2117
Path Distance: 2008
Destroyed Planner
Testing 4 Threads and 10,000 samples
Input file: /jet/home/ppareek/15418-Final-Project/maps/tests/density/Dense.txt
Output file: /jet/home/ppareek/15418-Final-Project/paths/tests/density/Dense_4_110000.txt
Start: 0,0
Goal: 999,999
Number of samples: 10000
Number of threads: 4
Loading map from file: /jet/home/ppareek/15418-Final-Project/maps/tests/density/Dense.txt
Created Planner
Using Boost 1.66.0
Planning
Sampling 10000 points
Map width: 1000
Map height: 1000
Generation time: 1.61256e+07ns
Connection time: 2.47706e+08ns
Starting A*
10001
We have Reached the Goal!!!
All threads exited
Path Found
Query time: 1.28102e+08ns
Time taken: 0.391995 seconds
Path Nodes: 2109
Path Distance: 2000
Destroyed Planner
Testing 8 Threads and 10,000 samples
Input file: /jet/home/ppareek/15418-Final-Project/maps/tests/density/Dense.txt
Output file: /jet/home/ppareek/15418-Final-Project/paths/tests/density/Dense_8_110000.txt
Start: 0,0
Goal: 999,999
Number of samples: 10000
Number of threads: 8
Loading map from file: /jet/home/ppareek/15418-Final-Project/maps/tests/density/Dense.txt
Created Planner
Using Boost 1.66.0
Planning
Sampling 10000 points
Map width: 1000
Map height: 1000
Generation time: 1.42277e+07ns
Connection time: 2.53033e+08ns
Starting A*
10001
We have Reached the Goal!!!
All threads exited
Path Found
Query time: 1.12674e+08ns
Time taken: 0.379998 seconds
Path Nodes: 2109
Path Distance: 2006
Destroyed Planner
Testing 16 Threads and 10,000 samples
Input file: /jet/home/ppareek/15418-Final-Project/maps/tests/density/Dense.txt
Output file: /jet/home/ppareek/15418-Final-Project/paths/tests/density/Dense_16_110000.txt
Start: 0,0
Goal: 999,999
Number of samples: 10000
Number of threads: 16
Loading map from file: /jet/home/ppareek/15418-Final-Project/maps/tests/density/Dense.txt
Created Planner
Using Boost 1.66.0
Planning
Sampling 10000 points
Map width: 1000
Map height: 1000
Generation time: 2.76644e+07ns
Connection time: 2.955e+08ns
Starting A*
10001
We have Reached the Goal!!!
All threads exited
Path Found
Query time: 5.91308e+07ns
Time taken: 0.382347 seconds
Path Nodes: 2119
Path Distance: 2008
Destroyed Planner
Testing 32 Threads and 10,000 samples
Input file: /jet/home/ppareek/15418-Final-Project/maps/tests/density/Dense.txt
Output file: /jet/home/ppareek/15418-Final-Project/paths/tests/density/Dense_32_110000.txt
Start: 0,0
Goal: 999,999
Number of samples: 10000
Number of threads: 32
Loading map from file: /jet/home/ppareek/15418-Final-Project/maps/tests/density/Dense.txt
Created Planner
Using Boost 1.66.0
Planning
Sampling 10000 points
Map width: 1000
Map height: 1000
Generation time: 1.95881e+07ns
Connection time: 2.2492e+08ns
Starting A*
10001
We have Reached the Goal!!!
All threads exited
Path Found
Query time: 4.46981e+07ns
Time taken: 0.289268 seconds
Path Nodes: 2143
Path Distance: 2032
Destroyed Planner
Testing 64 Threads and 10,000 samples
Input file: /jet/home/ppareek/15418-Final-Project/maps/tests/density/Dense.txt
Output file: /jet/home/ppareek/15418-Final-Project/paths/tests/density/Dense_64_110000.txt
Start: 0,0
Goal: 999,999
Number of samples: 10000
Number of threads: 64
Loading map from file: /jet/home/ppareek/15418-Final-Project/maps/tests/density/Dense.txt
Created Planner
Using Boost 1.66.0
Planning
Sampling 10000 points
Map width: 1000
Map height: 1000
Generation time: 4.09724e+07ns
Connection time: 2.67292e+08ns
Starting A*
10001
We have Reached the Goal!!!
All threads exited
Path Found
Query time: 3.41602e+07ns
Time taken: 0.342485 seconds
Path Nodes: 2163
Path Distance: 2054
Destroyed Planner
Testing 128 Threads and 10,000 samples
Input file: /jet/home/ppareek/15418-Final-Project/maps/tests/density/Dense.txt
Output file: /jet/home/ppareek/15418-Final-Project/paths/tests/density/Dense_128_110000.txt
Start: 0,0
Goal: 999,999
Number of samples: 10000
Number of threads: 128
Loading map from file: /jet/home/ppareek/15418-Final-Project/maps/tests/density/Dense.txt
Created Planner
Using Boost 1.66.0
Planning
Sampling 10000 points
Map width: 1000
Map height: 1000
Generation time: 5.33377e+07ns
Connection time: 3.61305e+08ns
Starting A*
10001
We have Reached the Goal!!!
All threads exited
Path Found
Query time: 1.22828e+08ns
Time taken: 0.537704 seconds
Path Nodes: 2128
Path Distance: 2018
Destroyed Planner
--------------------------------------------------------------------------------
Testing 1 Threads and 20,000 samples
Input file: /jet/home/ppareek/15418-Final-Project/maps/tests/density/Dense.txt
Output file: /jet/home/ppareek/15418-Final-Project/paths/tests/density/Dense_1_20000.txt
Start: 0,0
Goal: 999,999
Number of samples: 20000
Number of threads: 1
Loading map from file: /jet/home/ppareek/15418-Final-Project/maps/tests/density/Dense.txt
Created Planner
Using Boost 1.66.0
Planning
Sampling 20000 points
Map width: 1000
Map height: 1000
Generation time: 2.89834e+06ns
Connection time: 1.19756e+09ns
Starting A*
20001
We have Reached the Goal!!!
All threads exited
Path Found
Query time: 3.53756e+08ns
Time taken: 1.55431 seconds
Path Nodes: 2111
Path Distance: 1998
Destroyed Planner
Testing 2 Threads and 20,000 samples
Input file: /jet/home/ppareek/15418-Final-Project/maps/tests/density/Dense.txt
Output file: /jet/home/ppareek/15418-Final-Project/paths/tests/density/Dense_2_20000.txt
Start: 0,0
Goal: 999,999
Number of samples: 20000
Number of threads: 2
Loading map from file: /jet/home/ppareek/15418-Final-Project/maps/tests/density/Dense.txt
Created Planner
Using Boost 1.66.0
Planning
Sampling 20000 points
Map width: 1000
Map height: 1000
Generation time: 1.09396e+07ns
Connection time: 1.1888e+09ns
Starting A*
20001
We have Reached the Goal!!!
All threads exited
Path Found
Query time: 5.54044e+08ns
Time taken: 1.75389 seconds
Path Nodes: 2114
Path Distance: 1998
Destroyed Planner
Testing 4 Threads and 20,000 samples
Input file: /jet/home/ppareek/15418-Final-Project/maps/tests/density/Dense.txt
Output file: /jet/home/ppareek/15418-Final-Project/paths/tests/density/Dense_4_20000.txt
Start: 0,0
Goal: 999,999
Number of samples: 20000
Number of threads: 4
Loading map from file: /jet/home/ppareek/15418-Final-Project/maps/tests/density/Dense.txt
Created Planner
Using Boost 1.66.0
Planning
Sampling 20000 points
Map width: 1000
Map height: 1000
Generation time: 2.00583e+07ns
Connection time: 9.19543e+08ns
Starting A*
20001
We have Reached the Goal!!!
All threads exited
Path Found
Query time: 6.57008e+08ns
Time taken: 1.5967 seconds
Path Nodes: 2107
Path Distance: 1998
Destroyed Planner
Testing 8 Threads and 20,000 samples
Input file: /jet/home/ppareek/15418-Final-Project/maps/tests/density/Dense.txt
Output file: /jet/home/ppareek/15418-Final-Project/paths/tests/density/Dense_8_20000.txt
Start: 0,0
Goal: 999,999
Number of samples: 20000
Number of threads: 8
Loading map from file: /jet/home/ppareek/15418-Final-Project/maps/tests/density/Dense.txt
Created Planner
Using Boost 1.66.0
Planning
Sampling 20000 points
Map width: 1000
Map height: 1000
Generation time: 2.90142e+07ns
Connection time: 1.05821e+09ns
Starting A*
20001
We have Reached the Goal!!!
All threads exited
Path Found
Query time: 4.36219e+08ns
Time taken: 1.52355 seconds
Path Nodes: 2107
Path Distance: 1998
Destroyed Planner
Testing 16 Threads and 20,000 samples
Input file: /jet/home/ppareek/15418-Final-Project/maps/tests/density/Dense.txt
Output file: /jet/home/ppareek/15418-Final-Project/paths/tests/density/Dense_16_20000.txt
Start: 0,0
Goal: 999,999
Number of samples: 20000
Number of threads: 16
Loading map from file: /jet/home/ppareek/15418-Final-Project/maps/tests/density/Dense.txt
Created Planner
Using Boost 1.66.0
Planning
Sampling 20000 points
Map width: 1000
Map height: 1000
Generation time: 5.50369e+07ns
Connection time: 1.1409e+09ns
Starting A*
20001
We have Reached the Goal!!!
All threads exited
Path Found
Query time: 3.10218e+08ns
Time taken: 1.50624 seconds
Path Nodes: 2110
Path Distance: 1998
Destroyed Planner
Testing 32 Threads and 20,000 samples
Input file: /jet/home/ppareek/15418-Final-Project/maps/tests/density/Dense.txt
Output file: /jet/home/ppareek/15418-Final-Project/paths/tests/density/Dense_32_20000.txt
Start: 0,0
Goal: 999,999
Number of samples: 20000
Number of threads: 32
Loading map from file: /jet/home/ppareek/15418-Final-Project/maps/tests/density/Dense.txt
Created Planner
Using Boost 1.66.0
Planning
Sampling 20000 points
Map width: 1000
Map height: 1000
Generation time: 5.38091e+07ns
Connection time: 1.16964e+09ns
Starting A*
20001
We have Reached the Goal!!!
All threads exited
Path Found
Query time: 2.31899e+08ns
Time taken: 1.45552 seconds
Path Nodes: 2104
Path Distance: 1998
Destroyed Planner
Testing 64 Threads and 20,000 samples
Input file: /jet/home/ppareek/15418-Final-Project/maps/tests/density/Dense.txt
Output file: /jet/home/ppareek/15418-Final-Project/paths/tests/density/Dense_64_20000.txt
Start: 0,0
Goal: 999,999
Number of samples: 20000
Number of threads: 64
Loading map from file: /jet/home/ppareek/15418-Final-Project/maps/tests/density/Dense.txt
Created Planner
Using Boost 1.66.0
Planning
Sampling 20000 points
Map width: 1000
Map height: 1000
Generation time: 4.78455e+07ns
Connection time: 1.27046e+09ns
Starting A*
20001
We have Reached the Goal!!!
All threads exited
Path Found
Query time: 2.32054e+08ns
Time taken: 1.55064 seconds
Path Nodes: 2108
Path Distance: 1998
Destroyed Planner
Testing 128 Threads and 20,000 samples
Input file: /jet/home/ppareek/15418-Final-Project/maps/tests/density/Dense.txt
Output file: /jet/home/ppareek/15418-Final-Project/paths/tests/density/Dense_128_20000.txt
Start: 0,0
Goal: 999,999
Number of samples: 20000
Number of threads: 128
Loading map from file: /jet/home/ppareek/15418-Final-Project/maps/tests/density/Dense.txt
Created Planner
Using Boost 1.66.0
Planning
Sampling 20000 points
Map width: 1000
Map height: 1000
Generation time: 6.49914e+07ns
Connection time: 1.70769e+09ns
Starting A*
20001
We have Reached the Goal!!!
All threads exited
Path Found
Query time: 3.00225e+08ns
Time taken: 2.07306 seconds
Path Nodes: 2109
Path Distance: 1998
Destroyed Planner
--------------------------------------------------------------------------------
Done.
Testing /jet/home/ppareek/15418-Final-Project/scripts/test_scripts/test_empty.sh
----------------------------------- Testing Empty -----------------------------------
Testing 1 Thread and 5,000 samples
Input file: /jet/home/ppareek/15418-Final-Project/maps/tests/density/Empty.txt
Output file: /jet/home/ppareek/15418-Final-Project/paths/tests/density/Empty_1_5000.txt
Start: 0,0
Goal: 999,999
Number of samples: 5000
Number of threads: 1
Loading map from file: /jet/home/ppareek/15418-Final-Project/maps/tests/density/Empty.txt
Created Planner
Using Boost 1.66.0
Planning
Sampling 5000 points
Map width: 1000
Map height: 1000
Generation time: 386064ns
Connection time: 6.65578e+07ns
Starting A*
5001
We have Reached the Goal!!!
All threads exited
Path Found
Query time: 5.50633e+06ns
Time taken: 0.0724903 seconds
Path Nodes: 2277
Path Distance: 2162
Destroyed Planner
Testing 2 Threads and 5,000 samples
Input file: /jet/home/ppareek/15418-Final-Project/maps/tests/density/Empty.txt
Output file: /jet/home/ppareek/15418-Final-Project/paths/tests/density/Empty_2_5000.txt
Start: 0,0
Goal: 999,999
Number of samples: 5000
Number of threads: 2
Loading map from file: /jet/home/ppareek/15418-Final-Project/maps/tests/density/Empty.txt
Created Planner
Using Boost 1.66.0
Planning
Sampling 5000 points
Map width: 1000
Map height: 1000
Generation time: 1.57523e+06ns
Connection time: 5.2024e+07ns
Starting A*
5001
We have Reached the Goal!!!
All threads exited
Path Found
Query time: 1.46362e+07ns
Time taken: 0.0682842 seconds
Path Nodes: 3231
Path Distance: 3068
Destroyed Planner
Testing 4 Threads and 5,000 samples
Input file: /jet/home/ppareek/15418-Final-Project/maps/tests/density/Empty.txt
Output file: /jet/home/ppareek/15418-Final-Project/paths/tests/density/Empty_4_5000.txt
Start: 0,0
Goal: 999,999
Number of samples: 5000
Number of threads: 4
Loading map from file: /jet/home/ppareek/15418-Final-Project/maps/tests/density/Empty.txt
Created Planner
Using Boost 1.66.0
Planning
Sampling 5000 points
Map width: 1000
Map height: 1000
Generation time: 3.65472e+06ns
Connection time: 3.60809e+07ns
Starting A*
All threads exited
No Path Found
No path found. Planning Failed.
Query failed
Time taken: 0.0398173 seconds
Path Nodes: 0
Path Distance: 0
Destroyed Planner
Testing 8 Threads and 5,000 samples
Input file: /jet/home/ppareek/15418-Final-Project/maps/tests/density/Empty.txt
Output file: /jet/home/ppareek/15418-Final-Project/paths/tests/density/Empty_8_5000.txt
Start: 0,0
Goal: 999,999
Number of samples: 5000
Number of threads: 8
Loading map from file: /jet/home/ppareek/15418-Final-Project/maps/tests/density/Empty.txt
Created Planner
Using Boost 1.66.0
Planning
Sampling 5000 points
Map width: 1000
Map height: 1000
Generation time: 6.40287e+06ns
Connection time: 3.25487e+07ns
Starting A*
5001
We have Reached the Goal!!!
All threads exited
Path Found
Query time: 1.54838e+07ns
Time taken: 0.0544766 seconds
Path Nodes: 2484
Path Distance: 2352
Destroyed Planner
Testing 16 Threads and 5,000 samples
Input file: /jet/home/ppareek/15418-Final-Project/maps/tests/density/Empty.txt
Output file: /jet/home/ppareek/15418-Final-Project/paths/tests/density/Empty_16_5000.txt
Start: 0,0
Goal: 999,999
Number of samples: 5000
Number of threads: 16
Loading map from file: /jet/home/ppareek/15418-Final-Project/maps/tests/density/Empty.txt
Created Planner
Using Boost 1.66.0
Planning
Sampling 5000 points
Map width: 1000
Map height: 1000
Generation time: 5.47091e+06ns
Connection time: 3.20067e+07ns
Starting A*
All threads exited
No Path Found
No path found. Planning Failed.
Query failed
Time taken: 0.0495081 seconds
Path Nodes: 0
Path Distance: 0
Destroyed Planner
Testing 32 Threads and 5,000 samples
Input file: /jet/home/ppareek/15418-Final-Project/maps/tests/density/Empty.txt
Output file: /jet/home/ppareek/15418-Final-Project/paths/tests/density/Empty_32_5000.txt
Start: 0,0
Goal: 999,999
Number of samples: 5000
Number of threads: 32
Loading map from file: /jet/home/ppareek/15418-Final-Project/maps/tests/density/Empty.txt
Created Planner
Using Boost 1.66.0
Planning
Sampling 5000 points
Map width: 1000
Map height: 1000
Generation time: 1.85823e+07ns
Connection time: 3.53874e+07ns
Starting A*
All threads exited
No Path Found
No path found. Planning Failed.
Query failed
Time taken: 0.0542414 seconds
Path Nodes: 0
Path Distance: 0
Destroyed Planner
Testing 64 Threads and 5,000 samples
Input file: /jet/home/ppareek/15418-Final-Project/maps/tests/density/Empty.txt
Output file: /jet/home/ppareek/15418-Final-Project/paths/tests/density/Empty_64_5000.txt
Start: 0,0
Goal: 999,999
Number of samples: 5000
Number of threads: 64
Loading map from file: /jet/home/ppareek/15418-Final-Project/maps/tests/density/Empty.txt
Created Planner
Using Boost 1.66.0
Planning
Sampling 5000 points
Map width: 1000
Map height: 1000
Generation time: 2.49723e+07ns
Connection time: 3.42013e+07ns
Starting A*
5001
We have Reached the Goal!!!
All threads exited
Path Found
Query time: 1.21081e+08ns
Time taken: 0.180328 seconds
Path Nodes: 2570
Path Distance: 2438
Destroyed Planner
Testing 128 Threads and 5,000 samples
Input file: /jet/home/ppareek/15418-Final-Project/maps/tests/density/Empty.txt
Output file: /jet/home/ppareek/15418-Final-Project/paths/tests/density/Empty_128_5000.txt
Start: 0,0
Goal: 999,999
Number of samples: 5000
Number of threads: 128
Loading map from file: /jet/home/ppareek/15418-Final-Project/maps/tests/density/Empty.txt
Created Planner
Using Boost 1.66.0
Planning
Sampling 5000 points
Map width: 1000
Map height: 1000
Generation time: 2.71641e+07ns
Connection time: 4.89654e+07ns
Starting A*
All threads exited
No Path Found
No path found. Planning Failed.
Query failed
Time taken: 0.158932 seconds
Path Nodes: 0
Path Distance: 0
Destroyed Planner
--------------------------------------------------------------------------------
Testing 1 Threads and 10,000 samples
Input file: /jet/home/ppareek/15418-Final-Project/maps/tests/density/Empty.txt
Output file: /jet/home/ppareek/15418-Final-Project/paths/tests/density/Empty_1_10000.txt
Start: 0,0
Goal: 999,999
Number of samples: 10000
Number of threads: 1
Loading map from file: /jet/home/ppareek/15418-Final-Project/maps/tests/density/Empty.txt
Created Planner
Using Boost 1.66.0
Planning
Sampling 10000 points
Map width: 1000
Map height: 1000
Generation time: 921047ns
Connection time: 2.71289e+08ns
Starting A*
10001
We have Reached the Goal!!!
All threads exited
Path Found
Query time: 1.02175e+07ns
Time taken: 0.282499 seconds
Path Nodes: 2107
Path Distance: 1998
Destroyed Planner
Testing 2 Threads and 10,000 samples
Input file: /jet/home/ppareek/15418-Final-Project/maps/tests/density/Empty.txt
Output file: /jet/home/ppareek/15418-Final-Project/paths/tests/density/Empty_2_10000.txt
Start: 0,0
Goal: 999,999
Number of samples: 10000
Number of threads: 2
Loading map from file: /jet/home/ppareek/15418-Final-Project/maps/tests/density/Empty.txt
Created Planner
Using Boost 1.66.0
Planning
Sampling 10000 points
Map width: 1000
Map height: 1000
Generation time: 2.93975e+06ns
Connection time: 1.91012e+08ns
Starting A*
10001
We have Reached the Goal!!!
All threads exited
Path Found
Query time: 5.13898e+07ns
Time taken: 0.245403 seconds
Path Nodes: 2211
Path Distance: 2094
Destroyed Planner
Testing 4 Threads and 10,000 samples
Input file: /jet/home/ppareek/15418-Final-Project/maps/tests/density/Empty.txt
Output file: /jet/home/ppareek/15418-Final-Project/paths/tests/density/Empty_4_10000.txt
Start: 0,0
Goal: 999,999
Number of samples: 10000
Number of threads: 4
Loading map from file: /jet/home/ppareek/15418-Final-Project/maps/tests/density/Empty.txt
Created Planner
Using Boost 1.66.0
Planning
Sampling 10000 points
Map width: 1000
Map height: 1000
Generation time: 7.0066e+06ns
Connection time: 1.39153e+08ns
Starting A*
10001
We have Reached the Goal!!!
All threads exited
Path Found
Query time: 4.73073e+07ns
Time taken: 0.193507 seconds
Path Nodes: 2108
Path Distance: 1998
Destroyed Planner
Testing 8 Threads and 10,000 samples
Input file: /jet/home/ppareek/15418-Final-Project/maps/tests/density/Empty.txt
Output file: /jet/home/ppareek/15418-Final-Project/paths/tests/density/Empty_8_10000.txt
Start: 0,0
Goal: 999,999
Number of samples: 10000
Number of threads: 8
Loading map from file: /jet/home/ppareek/15418-Final-Project/maps/tests/density/Empty.txt
Created Planner
Using Boost 1.66.0
Planning
Sampling 10000 points
Map width: 1000
Map height: 1000
Generation time: 8.37231e+06ns
Connection time: 1.28719e+08ns
Starting A*
10001
We have Reached the Goal!!!
All threads exited
Path Found
Query time: 5.75392e+07ns
Time taken: 0.19468 seconds
Path Nodes: 2112
Path Distance: 2000
Destroyed Planner
Testing 16 Threads and 10,000 samples
Input file: /jet/home/ppareek/15418-Final-Project/maps/tests/density/Empty.txt
Output file: /jet/home/ppareek/15418-Final-Project/paths/tests/density/Empty_16_10000.txt
Start: 0,0
Goal: 999,999
Number of samples: 10000
Number of threads: 16
Loading map from file: /jet/home/ppareek/15418-Final-Project/maps/tests/density/Empty.txt
Created Planner
Using Boost 1.66.0
Planning
Sampling 10000 points
Map width: 1000
Map height: 1000
Generation time: 1.27736e+07ns
Connection time: 1.20766e+08ns
Starting A*
10001
We have Reached the Goal!!!
All threads exited
Path Found
Query time: 2.55561e+07ns
Time taken: 0.159166 seconds
Path Nodes: 2112
Path Distance: 2004
Destroyed Planner
Testing 32 Threads and 10,000 samples
Input file: /jet/home/ppareek/15418-Final-Project/maps/tests/density/Empty.txt
Output file: /jet/home/ppareek/15418-Final-Project/paths/tests/density/Empty_32_10000.txt
Start: 0,0
Goal: 999,999
Number of samples: 10000
Number of threads: 32
Loading map from file: /jet/home/ppareek/15418-Final-Project/maps/tests/density/Empty.txt
Created Planner
Using Boost 1.66.0
Planning
Sampling 10000 points
Map width: 1000
Map height: 1000
Generation time: 1.09025e+07ns
Connection time: 1.2383e+08ns
Starting A*
10001
We have Reached the Goal!!!
All threads exited
Path Found
Query time: 1.94282e+07ns
Time taken: 0.154218 seconds
Path Nodes: 2120
Path Distance: 2010
Destroyed Planner
Testing 64 Threads and 10,000 samples
Input file: /jet/home/ppareek/15418-Final-Project/maps/tests/density/Empty.txt
Output file: /jet/home/ppareek/15418-Final-Project/paths/tests/density/Empty_64_10000.txt
Start: 0,0
Goal: 999,999
Number of samples: 10000
Number of threads: 64
Loading map from file: /jet/home/ppareek/15418-Final-Project/maps/tests/density/Empty.txt
Created Planner
Using Boost 1.66.0
Planning
Sampling 10000 points
Map width: 1000
Map height: 1000
Generation time: 2.19089e+07ns
Connection time: 1.58232e+08ns
Starting A*
10001
We have Reached the Goal!!!
All threads exited
Path Found
Query time: 3.14755e+07ns
Time taken: 0.211825 seconds
Path Nodes: 2126
Path Distance: 2018
Destroyed Planner
Testing 128 Threads and 10,000 samples
Input file: /jet/home/ppareek/15418-Final-Project/maps/tests/density/Empty.txt
Output file: /jet/home/ppareek/15418-Final-Project/paths/tests/density/Empty_128_10000.txt
Start: 0,0
Goal: 999,999
Number of samples: 10000
Number of threads: 128
Loading map from file: /jet/home/ppareek/15418-Final-Project/maps/tests/density/Empty.txt
Created Planner
Using Boost 1.66.0
Planning
Sampling 10000 points
Map width: 1000
Map height: 1000
Generation time: 4.69279e+07ns
Connection time: 1.8695e+08ns
Starting A*
All threads exited
No Path Found
No path found. Planning Failed.
Query failed
Time taken: 0.449601 seconds
Path Nodes: 0
Path Distance: 0
Destroyed Planner
--------------------------------------------------------------------------------
Testing 1 Threads and 20,000 samples
Input file: /jet/home/ppareek/15418-Final-Project/maps/tests/density/Empty.txt
Output file: /jet/home/ppareek/15418-Final-Project/paths/tests/density/Empty_1_20000.txt
Start: 0,0
Goal: 999,999
Number of samples: 20000
Number of threads: 1
Loading map from file: /jet/home/ppareek/15418-Final-Project/maps/tests/density/Empty.txt
Created Planner
Using Boost 1.66.0
Planning
Sampling 20000 points
Map width: 1000
Map height: 1000
Generation time: 1.53593e+06ns
Connection time: 1.09224e+09ns
Starting A*
20001
We have Reached the Goal!!!
All threads exited
Path Found
Query time: 2.50159e+07ns
Time taken: 1.11889 seconds
Path Nodes: 2110
Path Distance: 1998
Destroyed Planner
Testing 2 Threads and 20,000 samples
Input file: /jet/home/ppareek/15418-Final-Project/maps/tests/density/Empty.txt
Output file: /jet/home/ppareek/15418-Final-Project/paths/tests/density/Empty_2_20000.txt
Start: 0,0
Goal: 999,999
Number of samples: 20000
Number of threads: 2
Loading map from file: /jet/home/ppareek/15418-Final-Project/maps/tests/density/Empty.txt
Created Planner
Using Boost 1.66.0
Planning
Sampling 20000 points
Map width: 1000
Map height: 1000
Generation time: 5.80622e+06ns
Connection time: 7.62513e+08ns
Starting A*
20001
We have Reached the Goal!!!
All threads exited
Path Found
Query time: 2.0239e+08ns
Time taken: 0.970799 seconds
Path Nodes: 2109
Path Distance: 1998
Destroyed Planner
Testing 4 Threads and 20,000 samples
Input file: /jet/home/ppareek/15418-Final-Project/maps/tests/density/Empty.txt
Output file: /jet/home/ppareek/15418-Final-Project/paths/tests/density/Empty_4_20000.txt
Start: 0,0
Goal: 999,999
Number of samples: 20000
Number of threads: 4
Loading map from file: /jet/home/ppareek/15418-Final-Project/maps/tests/density/Empty.txt
Created Planner
Using Boost 1.66.0
Planning
Sampling 20000 points
Map width: 1000
Map height: 1000
Generation time: 1.46444e+07ns
Connection time: 5.52032e+08ns
Starting A*
20001
We have Reached the Goal!!!
All threads exited
Path Found
Query time: 2.8473e+08ns
Time taken: 0.851492 seconds
Path Nodes: 2111
Path Distance: 1998
Destroyed Planner
Testing 8 Threads and 20,000 samples
Input file: /jet/home/ppareek/15418-Final-Project/maps/tests/density/Empty.txt
Output file: /jet/home/ppareek/15418-Final-Project/paths/tests/density/Empty_8_20000.txt
Start: 0,0
Goal: 999,999
Number of samples: 20000
Number of threads: 8
Loading map from file: /jet/home/ppareek/15418-Final-Project/maps/tests/density/Empty.txt
Created Planner
Using Boost 1.66.0
Planning
Sampling 20000 points
Map width: 1000
Map height: 1000
Generation time: 1.49384e+07ns
Connection time: 5.10118e+08ns
Starting A*
20001
We have Reached the Goal!!!
All threads exited
Path Found
Query time: 2.90905e+08ns
Time taken: 0.816043 seconds
Path Nodes: 2110
Path Distance: 1998
Destroyed Planner
Testing 16 Threads and 20,000 samples
Input file: /jet/home/ppareek/15418-Final-Project/maps/tests/density/Empty.txt
Output file: /jet/home/ppareek/15418-Final-Project/paths/tests/density/Empty_16_20000.txt
Start: 0,0
Goal: 999,999
Number of samples: 20000
Number of threads: 16
Loading map from file: /jet/home/ppareek/15418-Final-Project/maps/tests/density/Empty.txt
Created Planner
Using Boost 1.66.0
Planning
Sampling 20000 points
Map width: 1000
Map height: 1000
Generation time: 1.75332e+07ns
Connection time: 5.31054e+08ns
Starting A*
20001
We have Reached the Goal!!!
All threads exited
Path Found
Query time: 1.68883e+08ns
Time taken: 0.717538 seconds
Path Nodes: 2112
Path Distance: 1998
Destroyed Planner
Testing 32 Threads and 20,000 samples
Input file: /jet/home/ppareek/15418-Final-Project/maps/tests/density/Empty.txt
Output file: /jet/home/ppareek/15418-Final-Project/paths/tests/density/Empty_32_20000.txt
Start: 0,0
Goal: 999,999
Number of samples: 20000
Number of threads: 32
Loading map from file: /jet/home/ppareek/15418-Final-Project/maps/tests/density/Empty.txt
Created Planner
Using Boost 1.66.0
Planning
Sampling 20000 points
Map width: 1000
Map height: 1000
Generation time: 1.96624e+07ns
Connection time: 4.80085e+08ns
Starting A*
20001
We have Reached the Goal!!!
All threads exited
Path Found
Query time: 9.12883e+07ns
Time taken: 0.591112 seconds
Path Nodes: 2107
Path Distance: 1998
Destroyed Planner
Testing 64 Threads and 20,000 samples
Input file: /jet/home/ppareek/15418-Final-Project/maps/tests/density/Empty.txt
Output file: /jet/home/ppareek/15418-Final-Project/paths/tests/density/Empty_64_20000.txt
Start: 0,0
Goal: 999,999
Number of samples: 20000
Number of threads: 64
Loading map from file: /jet/home/ppareek/15418-Final-Project/maps/tests/density/Empty.txt
Created Planner
Using Boost 1.66.0
Planning
Sampling 20000 points
Map width: 1000
Map height: 1000
Generation time: 3.43975e+07ns
Connection time: 6.08841e+08ns
Starting A*
20001
We have Reached the Goal!!!
All threads exited
Path Found
Query time: 1.08779e+08ns
Time taken: 0.752103 seconds
Path Nodes: 2107
Path Distance: 1998
Destroyed Planner
Testing 128 Threads and 20,000 samples
Input file: /jet/home/ppareek/15418-Final-Project/maps/tests/density/Empty.txt
Output file: /jet/home/ppareek/15418-Final-Project/paths/tests/density/Empty_128_20000.txt
Start: 0,0
Goal: 999,999
Number of samples: 20000
Number of threads: 128
Loading map from file: /jet/home/ppareek/15418-Final-Project/maps/tests/density/Empty.txt
Created Planner
Using Boost 1.66.0
Planning
Sampling 20000 points
Map width: 1000
Map height: 1000
Generation time: 4.74232e+07ns
Connection time: 6.50398e+08ns
Starting A*
20001
We have Reached the Goal!!!
All threads exited
Path Found
Query time: 1.15416e+08ns
Time taken: 0.813354 seconds
Path Nodes: 2106
Path Distance: 1998
Destroyed Planner
--------------------------------------------------------------------------------
Done.
Testing /jet/home/ppareek/15418-Final-Project/scripts/test_scripts/test_large.sh
----------------------------------- Testing Large -----------------------------------
Testing 1 Thread and 20,000 samples
Input file: /jet/home/ppareek/15418-Final-Project/maps/tests/size/Large.txt
Output file: /jet/home/ppareek/15418-Final-Project/paths/tests/size/Large_1_20000.txt
Start: 0,0
Goal: 1999,1999
Number of samples: 20000
Number of threads: 1
Loading map from file: /jet/home/ppareek/15418-Final-Project/maps/tests/size/Large.txt
Created Planner
Using Boost 1.66.0
Planning
Sampling 20000 points
Map width: 2000
Map height: 2000
Generation time: 3.36225e+06ns
Connection time: 1.0372e+09ns
Starting A*
20001
We have Reached the Goal!!!
All threads exited
Path Found
Query time: 3.67709e+07ns
Time taken: 1.07742 seconds
Path Nodes: 4547
Path Distance: 4308
Destroyed Planner
Testing 2 Threads and 20,000 samples
Input file: /jet/home/ppareek/15418-Final-Project/maps/tests/size/Large.txt
Output file: /jet/home/ppareek/15418-Final-Project/paths/tests/size/Large_2_20000.txt
Start: 0,0
Goal: 1999,1999
Number of samples: 20000
Number of threads: 2
Loading map from file: /jet/home/ppareek/15418-Final-Project/maps/tests/size/Large.txt
Created Planner
Using Boost 1.66.0
Planning
Sampling 20000 points
Map width: 2000
Map height: 2000
Generation time: 1.04507e+07ns
Connection time: 5.99241e+08ns
Starting A*
All threads exited
No Path Found
No path found. Planning Failed.
Query failed
Time taken: 0.695109 seconds
Path Nodes: 0
Path Distance: 0
Destroyed Planner
Testing 4 Threads and 20,000 samples
Input file: /jet/home/ppareek/15418-Final-Project/maps/tests/size/Large.txt
Output file: /jet/home/ppareek/15418-Final-Project/paths/tests/size/Large_4_20000.txt
Start: 0,0
Goal: 1999,1999
Number of samples: 20000
Number of threads: 4
Loading map from file: /jet/home/ppareek/15418-Final-Project/maps/tests/size/Large.txt
Created Planner
Using Boost 1.66.0
Planning
Sampling 20000 points
Map width: 2000
Map height: 2000
Generation time: 2.49464e+07ns
Connection time: 3.4703e+08ns
Starting A*
All threads exited
No Path Found
No path found. Planning Failed.
Query failed
Time taken: 0.501884 seconds
Path Nodes: 0
Path Distance: 0
Destroyed Planner
Testing 8 Threads and 20,000 samples
Input file: /jet/home/ppareek/15418-Final-Project/maps/tests/size/Large.txt
Output file: /jet/home/ppareek/15418-Final-Project/paths/tests/size/Large_8_20000.txt
Start: 0,0
Goal: 1999,1999
Number of samples: 20000
Number of threads: 8
Loading map from file: /jet/home/ppareek/15418-Final-Project/maps/tests/size/Large.txt
Created Planner
Using Boost 1.66.0
Planning
Sampling 20000 points
Map width: 2000
Map height: 2000
Generation time: 3.30631e+07ns
Connection time: 2.2314e+08ns
Starting A*
All threads exited
No Path Found
No path found. Planning Failed.
Query failed
Time taken: 0.342383 seconds
Path Nodes: 0
Path Distance: 0
Destroyed Planner
Testing 16 Threads and 20,000 samples
Input file: /jet/home/ppareek/15418-Final-Project/maps/tests/size/Large.txt
Output file: /jet/home/ppareek/15418-Final-Project/paths/tests/size/Large_16_20000.txt
Start: 0,0
Goal: 1999,1999
Number of samples: 20000
Number of threads: 16
Loading map from file: /jet/home/ppareek/15418-Final-Project/maps/tests/size/Large.txt
Created Planner
Using Boost 1.66.0
Planning
Sampling 20000 points
Map width: 2000
Map height: 2000
Generation time: 2.7559e+07ns
Connection time: 2.17732e+08ns
Starting A*
All threads exited
No Path Found
No path found. Planning Failed.
Query failed
Time taken: 0.306858 seconds
Path Nodes: 0
Path Distance: 0
Destroyed Planner
Testing 32 Threads and 20,000 samples
Input file: /jet/home/ppareek/15418-Final-Project/maps/tests/size/Large.txt
Output file: /jet/home/ppareek/15418-Final-Project/paths/tests/size/Large_32_20000.txt
Start: 0,0
Goal: 1999,1999
Number of samples: 20000
Number of threads: 32
Loading map from file: /jet/home/ppareek/15418-Final-Project/maps/tests/size/Large.txt
Created Planner
Using Boost 1.66.0
Planning
Sampling 20000 points
Map width: 2000
Map height: 2000
Generation time: 4.50095e+07ns
Connection time: 2.70134e+08ns
Starting A*
All threads exited
No Path Found
No path found. Planning Failed.
Query failed
Time taken: 0.36709 seconds
Path Nodes: 0
Path Distance: 0
Destroyed Planner
Testing 64 Threads and 20,000 samples
Input file: /jet/home/ppareek/15418-Final-Project/maps/tests/size/Large.txt
Output file: /jet/home/ppareek/15418-Final-Project/paths/tests/size/Large_64_20000.txt
Start: 0,0
Goal: 1999,1999
Number of samples: 20000
Number of threads: 64
Loading map from file: /jet/home/ppareek/15418-Final-Project/maps/tests/size/Large.txt
Created Planner
Using Boost 1.66.0
Planning
Sampling 20000 points
Map width: 2000
Map height: 2000
Generation time: 4.96546e+07ns
Connection time: 2.04787e+08ns
Starting A*
All threads exited
No Path Found
No path found. Planning Failed.
Query failed
Time taken: 0.254807 seconds
Path Nodes: 0
Path Distance: 0
Destroyed Planner
Testing 128 Threads and 20,000 samples
Input file: /jet/home/ppareek/15418-Final-Project/maps/tests/size/Large.txt
Output file: /jet/home/ppareek/15418-Final-Project/paths/tests/size/Large_128_20000.txt
Start: 0,0
Goal: 1999,1999
Number of samples: 20000
Number of threads: 128
Loading map from file: /jet/home/ppareek/15418-Final-Project/maps/tests/size/Large.txt
Created Planner
Using Boost 1.66.0
Planning
Sampling 20000 points
Map width: 2000
Map height: 2000
Generation time: 6.41656e+07ns
Connection time: 2.41311e+08ns
Starting A*
All threads exited
No Path Found
No path found. Planning Failed.
Query failed
Time taken: 0.342395 seconds
Path Nodes: 0
Path Distance: 0
Destroyed Planner
--------------------------------------------------------------------------------
Testing 1 Threads and 40,000 samples
Input file: /jet/home/ppareek/15418-Final-Project/maps/tests/size/Large.txt
Output file: /jet/home/ppareek/15418-Final-Project/paths/tests/size/Large_1_40000.txt
Start: 0,0
Goal: 1999,1999
Number of samples: 40000
Number of threads: 1
Loading map from file: /jet/home/ppareek/15418-Final-Project/maps/tests/size/Large.txt
Created Planner
Using Boost 1.66.0
Planning
Sampling 40000 points
Map width: 2000
Map height: 2000
Generation time: 8.54193e+06ns
Connection time: 4.21394e+09ns
Starting A*
40001
We have Reached the Goal!!!
All threads exited
Path Found
Query time: 1.50581e+08ns
Time taken: 4.37317 seconds
Path Nodes: 4237
Path Distance: 4020
Destroyed Planner
Testing 2 Threads and 40,000 samples
Input file: /jet/home/ppareek/15418-Final-Project/maps/tests/size/Large.txt
Output file: /jet/home/ppareek/15418-Final-Project/paths/tests/size/Large_2_40000.txt
Start: 0,0
Goal: 1999,1999
Number of samples: 40000
Number of threads: 2
Loading map from file: /jet/home/ppareek/15418-Final-Project/maps/tests/size/Large.txt
Created Planner
Using Boost 1.66.0
Planning
Sampling 40000 points
Map width: 2000
Map height: 2000
Generation time: 1.86879e+07ns
Connection time: 2.32923e+09ns
Starting A*
40001
We have Reached the Goal!!!
All threads exited
Path Found
Query time: 4.8133e+07ns
Time taken: 2.39615 seconds
Path Nodes: 4321
Path Distance: 4094
Destroyed Planner
Testing 4 Threads and 40,000 samples
Input file: /jet/home/ppareek/15418-Final-Project/maps/tests/size/Large.txt
Output file: /jet/home/ppareek/15418-Final-Project/paths/tests/size/Large_4_40000.txt
Start: 0,0
Goal: 1999,1999
Number of samples: 40000
Number of threads: 4
Loading map from file: /jet/home/ppareek/15418-Final-Project/maps/tests/size/Large.txt
Created Planner
Using Boost 1.66.0
Planning
Sampling 40000 points
Map width: 2000
Map height: 2000
Generation time: 3.9442e+07ns
Connection time: 1.3889e+09ns
Starting A*
40001
We have Reached the Goal!!!
All threads exited
Path Found
Query time: 3.83501e+08ns
Time taken: 1.81195 seconds
Path Nodes: 4543
Path Distance: 4306
Destroyed Planner
Testing 8 Threads and 40,000 samples
Input file: /jet/home/ppareek/15418-Final-Project/maps/tests/size/Large.txt
Output file: /jet/home/ppareek/15418-Final-Project/paths/tests/size/Large_8_40000.txt
Start: 0,0
Goal: 1999,1999
Number of samples: 40000
Number of threads: 8
Loading map from file: /jet/home/ppareek/15418-Final-Project/maps/tests/size/Large.txt
Created Planner
Using Boost 1.66.0
Planning
Sampling 40000 points
Map width: 2000
Map height: 2000
Generation time: 4.66204e+07ns
Connection time: 9.06073e+08ns
Starting A*
40001
We have Reached the Goal!!!
All threads exited
Path Found
Query time: 3.38309e+08ns
Time taken: 1.29111 seconds
Path Nodes: 4373
Path Distance: 4148
Destroyed Planner
Testing 16 Threads and 40,000 samples
Input file: /jet/home/ppareek/15418-Final-Project/maps/tests/size/Large.txt
Output file: /jet/home/ppareek/15418-Final-Project/paths/tests/size/Large_16_40000.txt
Start: 0,0
Goal: 1999,1999
Number of samples: 40000
Number of threads: 16
Loading map from file: /jet/home/ppareek/15418-Final-Project/maps/tests/size/Large.txt
Created Planner
Using Boost 1.66.0
Planning
Sampling 40000 points
Map width: 2000
Map height: 2000
Generation time: 5.07392e+07ns
Connection time: 8.42407e+08ns
Starting A*
40001
We have Reached the Goal!!!
All threads exited
Path Found
Query time: 1.38685e+08ns
Time taken: 1.03191 seconds
Path Nodes: 4268
Path Distance: 4050
Destroyed Planner
Testing 32 Threads and 40,000 samples
Input file: /jet/home/ppareek/15418-Final-Project/maps/tests/size/Large.txt
Output file: /jet/home/ppareek/15418-Final-Project/paths/tests/size/Large_32_40000.txt
Start: 0,0
Goal: 1999,1999
Number of samples: 40000
Number of threads: 32
Loading map from file: /jet/home/ppareek/15418-Final-Project/maps/tests/size/Large.txt
Created Planner
Using Boost 1.66.0
Planning
Sampling 40000 points
Map width: 2000
Map height: 2000
Generation time: 5.32842e+07ns
Connection time: 8.62004e+08ns
Starting A*
40001
We have Reached the Goal!!!
All threads exited
Path Found
Query time: 1.12454e+08ns
Time taken: 1.02784 seconds
Path Nodes: 4346
Path Distance: 4126
Destroyed Planner
Testing 64 Threads and 40,000 samples
Input file: /jet/home/ppareek/15418-Final-Project/maps/tests/size/Large.txt
Output file: /jet/home/ppareek/15418-Final-Project/paths/tests/size/Large_64_40000.txt
Start: 0,0
Goal: 1999,1999
Number of samples: 40000
Number of threads: 64
Loading map from file: /jet/home/ppareek/15418-Final-Project/maps/tests/size/Large.txt
Created Planner
Using Boost 1.66.0
Planning
Sampling 40000 points
Map width: 2000
Map height: 2000
Generation time: 8.43475e+07ns
Connection time: 9.0499e+08ns
Starting A*
40001
We have Reached the Goal!!!
All threads exited
Path Found
Query time: 1.865e+08ns
Time taken: 1.17597 seconds
Path Nodes: 4318
Path Distance: 4094
Destroyed Planner
Testing 128 Threads and 40,000 samples
Input file: /jet/home/ppareek/15418-Final-Project/maps/tests/size/Large.txt
Output file: /jet/home/ppareek/15418-Final-Project/paths/tests/size/Large_128_40000.txt
Start: 0,0
Goal: 1999,1999
Number of samples: 40000
Number of threads: 128
Loading map from file: /jet/home/ppareek/15418-Final-Project/maps/tests/size/Large.txt
Created Planner
Using Boost 1.66.0
Planning
Sampling 40000 points
Map width: 2000
Map height: 2000
Generation time: 8.6562e+07ns
Connection time: 9.17995e+08ns
Starting A*
40001
We have Reached the Goal!!!
All threads exited
Path Found
Query time: 3.64696e+08ns
Time taken: 1.36938 seconds
Path Nodes: 4542
Path Distance: 4308
Destroyed Planner
--------------------------------------------------------------------------------
Testing 1 Threads and 80,000 samples
Input file: /jet/home/ppareek/15418-Final-Project/maps/tests/size/Large.txt
Output file: /jet/home/ppareek/15418-Final-Project/paths/tests/size/Large_1_80000.txt
Start: 0,0
Goal: 1999,1999
Number of samples: 80000
Number of threads: 1
Loading map from file: /jet/home/ppareek/15418-Final-Project/maps/tests/size/Large.txt
Created Planner
Using Boost 1.66.0
Planning
Sampling 80000 points
Map width: 2000
Map height: 2000
Generation time: 1.61314e+07ns
Connection time: 1.66311e+10ns
Starting A*
80001
We have Reached the Goal!!!
All threads exited
Path Found
Query time: 8.15658e+08ns
Time taken: 17.463 seconds
Path Nodes: 4228
Path Distance: 4004
Destroyed Planner
Testing 2 Threads and 80,000 samples
Input file: /jet/home/ppareek/15418-Final-Project/maps/tests/size/Large.txt
Output file: /jet/home/ppareek/15418-Final-Project/paths/tests/size/Large_2_80000.txt
Start: 0,0
Goal: 1999,1999
Number of samples: 80000
Number of threads: 2
Loading map from file: /jet/home/ppareek/15418-Final-Project/maps/tests/size/Large.txt
Created Planner
Using Boost 1.66.0
Planning
Sampling 80000 points
Map width: 2000
Map height: 2000
Generation time: 3.58563e+07ns
Connection time: 9.49823e+09ns
Starting A*
80001
We have Reached the Goal!!!
All threads exited
Path Found
Query time: 1.29102e+09ns
Time taken: 10.8253 seconds
Path Nodes: 4221
Path Distance: 4000
Destroyed Planner
Testing 4 Threads and 80,000 samples
Input file: /jet/home/ppareek/15418-Final-Project/maps/tests/size/Large.txt
Output file: /jet/home/ppareek/15418-Final-Project/paths/tests/size/Large_4_80000.txt
Start: 0,0
Goal: 1999,1999
Number of samples: 80000
Number of threads: 4
Loading map from file: /jet/home/ppareek/15418-Final-Project/maps/tests/size/Large.txt
Created Planner
Using Boost 1.66.0
Planning
Sampling 80000 points
Map width: 2000
Map height: 2000
Generation time: 6.97106e+07ns
Connection time: 6.16913e+09ns
Starting A*
80001
We have Reached the Goal!!!
All threads exited
Path Found
Query time: 2.81595e+09ns
Time taken: 9.05497 seconds
Path Nodes: 4219
Path Distance: 4004
Destroyed Planner
Testing 8 Threads and 80,000 samples
Input file: /jet/home/ppareek/15418-Final-Project/maps/tests/size/Large.txt
Output file: /jet/home/ppareek/15418-Final-Project/paths/tests/size/Large_8_80000.txt
Start: 0,0
Goal: 1999,1999
Number of samples: 80000
Number of threads: 8
Loading map from file: /jet/home/ppareek/15418-Final-Project/maps/tests/size/Large.txt
Created Planner
Using Boost 1.66.0
Planning
Sampling 80000 points
Map width: 2000
Map height: 2000
Generation time: 8.15003e+07ns
Connection time: 3.77037e+09ns
Starting A*
80001
We have Reached the Goal!!!
All threads exited
Path Found
Query time: 2.01929e+09ns
Time taken: 5.87127 seconds
Path Nodes: 4217
Path Distance: 4000
Destroyed Planner
Testing 16 Threads and 80,000 samples
Input file: /jet/home/ppareek/15418-Final-Project/maps/tests/size/Large.txt
Output file: /jet/home/ppareek/15418-Final-Project/paths/tests/size/Large_16_80000.txt
Start: 0,0
Goal: 1999,1999
Number of samples: 80000
Number of threads: 16
Loading map from file: /jet/home/ppareek/15418-Final-Project/maps/tests/size/Large.txt
Created Planner
Using Boost 1.66.0
Planning
Sampling 80000 points
Map width: 2000
Map height: 2000
Generation time: 1.34436e+08ns
Connection time: 3.31686e+09ns
Starting A*
80001
We have Reached the Goal!!!
All threads exited
Path Found
Query time: 8.82804e+08ns
Time taken: 4.33425 seconds
Path Nodes: 4218
Path Distance: 3998
Destroyed Planner
Testing 32 Threads and 80,000 samples
Input file: /jet/home/ppareek/15418-Final-Project/maps/tests/size/Large.txt
Output file: /jet/home/ppareek/15418-Final-Project/paths/tests/size/Large_32_80000.txt
Start: 0,0
Goal: 1999,1999
Number of samples: 80000
Number of threads: 32
Loading map from file: /jet/home/ppareek/15418-Final-Project/maps/tests/size/Large.txt
Created Planner
Using Boost 1.66.0
Planning
Sampling 80000 points
Map width: 2000
Map height: 2000
Generation time: 1.3542e+08ns
Connection time: 3.81667e+09ns
Starting A*
80001
We have Reached the Goal!!!
All threads exited
Path Found
Query time: 7.47273e+08ns
Time taken: 4.69948 seconds
Path Nodes: 4214
Path Distance: 3998
Destroyed Planner
Testing 64 Threads and 80,000 samples
Input file: /jet/home/ppareek/15418-Final-Project/maps/tests/size/Large.txt
Output file: /jet/home/ppareek/15418-Final-Project/paths/tests/size/Large_64_80000.txt
Start: 0,0
Goal: 1999,1999
Number of samples: 80000
Number of threads: 64
Loading map from file: /jet/home/ppareek/15418-Final-Project/maps/tests/size/Large.txt
Created Planner
Using Boost 1.66.0
Planning
Sampling 80000 points
Map width: 2000
Map height: 2000
Generation time: 1.33546e+08ns
Connection time: 3.68545e+09ns
Starting A*
80001
We have Reached the Goal!!!
All threads exited
Path Found
Query time: 5.96955e+08ns
Time taken: 4.4161 seconds
Path Nodes: 4222
Path Distance: 3998
Destroyed Planner
Testing 128 Threads and 80,000 samples
Input file: /jet/home/ppareek/15418-Final-Project/maps/tests/size/Large.txt
Output file: /jet/home/ppareek/15418-Final-Project/paths/tests/size/Large_128_80000.txt
Start: 0,0
Goal: 1999,1999
Number of samples: 80000
Number of threads: 128
Loading map from file: /jet/home/ppareek/15418-Final-Project/maps/tests/size/Large.txt
Created Planner
Using Boost 1.66.0
Planning
Sampling 80000 points
Map width: 2000
Map height: 2000
Generation time: 1.67912e+08ns
Connection time: 4.20143e+09ns
Starting A*
80001
We have Reached the Goal!!!
All threads exited
Path Found
Query time: 8.35621e+08ns
Time taken: 5.20542 seconds
Path Nodes: 4227
Path Distance: 4008
Destroyed Planner
--------------------------------------------------------------------------------
Done.
Testing /jet/home/ppareek/15418-Final-Project/scripts/test_scripts/test_medium_density.sh
----------------------------------- Testing Medium_Density -----------------------------------
Testing 1 Thread and 5,000 samples
Input file: /jet/home/ppareek/15418-Final-Project/maps/tests/density/Medium_Density.txt
Output file: /jet/home/ppareek/15418-Final-Project/paths/tests/density/Medium_Density_1_5000.txt
Start: 0,0
Goal: 999,999
Number of samples: 5000
Number of threads: 1
Loading map from file: /jet/home/ppareek/15418-Final-Project/maps/tests/density/Medium_Density.txt
Created Planner
Using Boost 1.66.0
Planning
Sampling 5000 points
Map width: 1000
Map height: 1000
Generation time: 495729ns
Connection time: 6.82592e+07ns
Starting A*
All threads exited
No Path Found
No path found. Planning Failed.
Query failed
Time taken: 0.0799614 seconds
Path Nodes: 0
Path Distance: 0
Destroyed Planner
Testing 2 Threads and 5,000 samples
Input file: /jet/home/ppareek/15418-Final-Project/maps/tests/density/Medium_Density.txt
Output file: /jet/home/ppareek/15418-Final-Project/paths/tests/density/Medium_Density_2_5000.txt
Start: 0,0
Goal: 999,999
Number of samples: 5000
Number of threads: 2
Loading map from file: /jet/home/ppareek/15418-Final-Project/maps/tests/density/Medium_Density.txt
Created Planner
Using Boost 1.66.0
Planning
Sampling 5000 points
Map width: 1000
Map height: 1000
Generation time: 2.52334e+06ns
Connection time: 5.84781e+07ns
Starting A*
All threads exited
No Path Found
No path found. Planning Failed.
Query failed
Time taken: 0.0788927 seconds
Path Nodes: 0
Path Distance: 0
Destroyed Planner
Testing 4 Threads and 5,000 samples
Input file: /jet/home/ppareek/15418-Final-Project/maps/tests/density/Medium_Density.txt
Output file: /jet/home/ppareek/15418-Final-Project/paths/tests/density/Medium_Density_4_5000.txt
Start: 0,0
Goal: 999,999
Number of samples: 5000
Number of threads: 4
Loading map from file: /jet/home/ppareek/15418-Final-Project/maps/tests/density/Medium_Density.txt
Created Planner
Using Boost 1.66.0
Planning
Sampling 5000 points
Map width: 1000
Map height: 1000
Generation time: 4.19349e+06ns
Connection time: 4.43212e+07ns
Starting A*
All threads exited
No Path Found
No path found. Planning Failed.
Query failed
Time taken: 0.0765373 seconds
Path Nodes: 0
Path Distance: 0
Destroyed Planner
Testing 8 Threads and 5,000 samples
Input file: /jet/home/ppareek/15418-Final-Project/maps/tests/density/Medium_Density.txt
Output file: /jet/home/ppareek/15418-Final-Project/paths/tests/density/Medium_Density_8_5000.txt
Start: 0,0
Goal: 999,999
Number of samples: 5000
Number of threads: 8
Loading map from file: /jet/home/ppareek/15418-Final-Project/maps/tests/density/Medium_Density.txt
Created Planner
Using Boost 1.66.0
Planning
Sampling 5000 points
Map width: 1000
Map height: 1000
Generation time: 8.90629e+06ns
Connection time: 4.42328e+07ns
Starting A*
All threads exited
No Path Found
No path found. Planning Failed.
Query failed
Time taken: 0.0757338 seconds
Path Nodes: 0
Path Distance: 0
Destroyed Planner
Testing 16 Threads and 5,000 samples
Input file: /jet/home/ppareek/15418-Final-Project/maps/tests/density/Medium_Density.txt
Output file: /jet/home/ppareek/15418-Final-Project/paths/tests/density/Medium_Density_16_5000.txt
Start: 0,0
Goal: 999,999
Number of samples: 5000
Number of threads: 16
Loading map from file: /jet/home/ppareek/15418-Final-Project/maps/tests/density/Medium_Density.txt
Created Planner
Using Boost 1.66.0
Planning
Sampling 5000 points
Map width: 1000
Map height: 1000
Generation time: 9.4766e+06ns
Connection time: 4.33887e+07ns
Starting A*
5001
We have Reached the Goal!!!
All threads exited
Path Found
Query time: 1.38857e+07ns
Time taken: 0.0667949 seconds
Path Nodes: 2667
Path Distance: 2530
Destroyed Planner
Testing 32 Threads and 5,000 samples
Input file: /jet/home/ppareek/15418-Final-Project/maps/tests/density/Medium_Density.txt
Output file: /jet/home/ppareek/15418-Final-Project/paths/tests/density/Medium_Density_32_5000.txt
Start: 0,0
Goal: 999,999
Number of samples: 5000
Number of threads: 32
Loading map from file: /jet/home/ppareek/15418-Final-Project/maps/tests/density/Medium_Density.txt
Created Planner
Using Boost 1.66.0
Planning
Sampling 5000 points
Map width: 1000
Map height: 1000
Generation time: 1.01751e+07ns
Connection time: 3.76715e+07ns
Starting A*
All threads exited
No Path Found
No path found. Planning Failed.
Query failed
Time taken: 0.0578382 seconds
Path Nodes: 0
Path Distance: 0
Destroyed Planner
Testing 64 Threads and 5,000 samples
Input file: /jet/home/ppareek/15418-Final-Project/maps/tests/density/Medium_Density.txt
Output file: /jet/home/ppareek/15418-Final-Project/paths/tests/density/Medium_Density_64_5000.txt
Start: 0,0
Goal: 999,999
Number of samples: 5000
Number of threads: 64
Loading map from file: /jet/home/ppareek/15418-Final-Project/maps/tests/density/Medium_Density.txt
Created Planner
Using Boost 1.66.0
Planning
Sampling 5000 points
Map width: 1000
Map height: 1000
Generation time: 2.16686e+07ns
Connection time: 4.56835e+07ns
Starting A*
5001
We have Reached the Goal!!!
All threads exited
Path Found
Query time: 9.99992e+06ns
Time taken: 0.0774017 seconds
Path Nodes: 2438
Path Distance: 2316
Destroyed Planner
Testing 128 Threads and 5,000 samples
Input file: /jet/home/ppareek/15418-Final-Project/maps/tests/density/Medium_Density.txt
Output file: /jet/home/ppareek/15418-Final-Project/paths/tests/density/Medium_Density_128_5000.txt
Start: 0,0
Goal: 999,999
Number of samples: 5000
Number of threads: 128
Loading map from file: /jet/home/ppareek/15418-Final-Project/maps/tests/density/Medium_Density.txt
Created Planner
Using Boost 1.66.0
Planning
Sampling 5000 points
Map width: 1000
Map height: 1000
Generation time: 3.24278e+07ns
Connection time: 7.40475e+07ns
Starting A*
All threads exited
No Path Found
No path found. Planning Failed.
Query failed
Time taken: 0.603461 seconds
Path Nodes: 0
Path Distance: 0
Destroyed Planner
--------------------------------------------------------------------------------
Testing 1 Threads and 10,000 samples
Input file: /jet/home/ppareek/15418-Final-Project/maps/tests/density/Medium_Density.txt
Output file: /jet/home/ppareek/15418-Final-Project/paths/tests/density/Medium_Density_1_10000.txt
Start: 0,0
Goal: 999,999
Number of samples: 10000
Number of threads: 1
Loading map from file: /jet/home/ppareek/15418-Final-Project/maps/tests/density/Medium_Density.txt
Created Planner
Using Boost 1.66.0
Planning
Sampling 10000 points
Map width: 1000
Map height: 1000
Generation time: 1.07537e+06ns
Connection time: 2.78668e+08ns
Starting A*
10001
We have Reached the Goal!!!
All threads exited
Path Found
Query time: 4.41037e+07ns
Time taken: 0.323921 seconds
Path Nodes: 2127
Path Distance: 2014
Destroyed Planner
Testing 2 Threads and 10,000 samples
Input file: /jet/home/ppareek/15418-Final-Project/maps/tests/density/Medium_Density.txt
Output file: /jet/home/ppareek/15418-Final-Project/paths/tests/density/Medium_Density_2_10000.txt
Start: 0,0
Goal: 999,999
Number of samples: 10000
Number of threads: 2
Loading map from file: /jet/home/ppareek/15418-Final-Project/maps/tests/density/Medium_Density.txt
Created Planner
Using Boost 1.66.0
Planning
Sampling 10000 points
Map width: 1000
Map height: 1000
Generation time: 4.1003e+06ns
Connection time: 2.29204e+08ns
Starting A*
10001
We have Reached the Goal!!!
All threads exited
Path Found
Query time: 7.33168e+07ns
Time taken: 0.30668 seconds
Path Nodes: 2214
Path Distance: 2092
Destroyed Planner
Testing 4 Threads and 10,000 samples
Input file: /jet/home/ppareek/15418-Final-Project/maps/tests/density/Medium_Density.txt
Output file: /jet/home/ppareek/15418-Final-Project/paths/tests/density/Medium_Density_4_10000.txt
Start: 0,0
Goal: 999,999
Number of samples: 10000
Number of threads: 4
Loading map from file: /jet/home/ppareek/15418-Final-Project/maps/tests/density/Medium_Density.txt
Created Planner
Using Boost 1.66.0
Planning
Sampling 10000 points
Map width: 1000
Map height: 1000
Generation time: 1.05979e+07ns
Connection time: 1.74629e+08ns
Starting A*
10001
We have Reached the Goal!!!
All threads exited
Path Found
Query time: 7.06287e+07ns
Time taken: 0.255913 seconds
Path Nodes: 2164
Path Distance: 2050
Destroyed Planner
Testing 8 Threads and 10,000 samples
Input file: /jet/home/ppareek/15418-Final-Project/maps/tests/density/Medium_Density.txt
Output file: /jet/home/ppareek/15418-Final-Project/paths/tests/density/Medium_Density_8_10000.txt
Start: 0,0
Goal: 999,999
Number of samples: 10000
Number of threads: 8
Loading map from file: /jet/home/ppareek/15418-Final-Project/maps/tests/density/Medium_Density.txt
Created Planner
Using Boost 1.66.0
Planning
Sampling 10000 points
Map width: 1000
Map height: 1000
Generation time: 1.69695e+07ns
Connection time: 1.81885e+08ns
Starting A*
10001
We have Reached the Goal!!!
All threads exited
Path Found
Query time: 5.69433e+07ns
Time taken: 0.255848 seconds
Path Nodes: 2122
Path Distance: 2012
Destroyed Planner
Testing 16 Threads and 10,000 samples
Input file: /jet/home/ppareek/15418-Final-Project/maps/tests/density/Medium_Density.txt
Output file: /jet/home/ppareek/15418-Final-Project/paths/tests/density/Medium_Density_16_10000.txt
Start: 0,0
Goal: 999,999
Number of samples: 10000
Number of threads: 16
Loading map from file: /jet/home/ppareek/15418-Final-Project/maps/tests/density/Medium_Density.txt
Created Planner
Using Boost 1.66.0
Planning
Sampling 10000 points
Map width: 1000
Map height: 1000
Generation time: 1.29739e+07ns
Connection time: 1.73544e+08ns
Starting A*
10001
We have Reached the Goal!!!
All threads exited
Path Found
Query time: 4.83687e+07ns
Time taken: 0.234945 seconds
Path Nodes: 2153
Path Distance: 2040
Destroyed Planner
Testing 32 Threads and 10,000 samples
Input file: /jet/home/ppareek/15418-Final-Project/maps/tests/density/Medium_Density.txt
Output file: /jet/home/ppareek/15418-Final-Project/paths/tests/density/Medium_Density_32_10000.txt
Start: 0,0
Goal: 999,999
Number of samples: 10000
Number of threads: 32
Loading map from file: /jet/home/ppareek/15418-Final-Project/maps/tests/density/Medium_Density.txt
Created Planner
Using Boost 1.66.0
Planning
Sampling 10000 points
Map width: 1000
Map height: 1000
Generation time: 1.36313e+07ns
Connection time: 1.6116e+08ns
Starting A*
10001
We have Reached the Goal!!!
All threads exited
Path Found
Query time: 2.34238e+07ns
Time taken: 0.198271 seconds
Path Nodes: 2142
Path Distance: 2034
Destroyed Planner
Testing 64 Threads and 10,000 samples
Input file: /jet/home/ppareek/15418-Final-Project/maps/tests/density/Medium_Density.txt
Output file: /jet/home/ppareek/15418-Final-Project/paths/tests/density/Medium_Density_64_10000.txt
Start: 0,0
Goal: 999,999
Number of samples: 10000
Number of threads: 64
Loading map from file: /jet/home/ppareek/15418-Final-Project/maps/tests/density/Medium_Density.txt
Created Planner
Using Boost 1.66.0
Planning
Sampling 10000 points
Map width: 1000
Map height: 1000
Generation time: 3.11599e+07ns
Connection time: 1.80821e+08ns
Starting A*
10001
We have Reached the Goal!!!
All threads exited
Path Found
Query time: 2.38161e+07ns
Time taken: 0.235922 seconds
Path Nodes: 2242
Path Distance: 2130
Destroyed Planner
Testing 128 Threads and 10,000 samples
Input file: /jet/home/ppareek/15418-Final-Project/maps/tests/density/Medium_Density.txt
Output file: /jet/home/ppareek/15418-Final-Project/paths/tests/density/Medium_Density_128_10000.txt
Start: 0,0
Goal: 999,999
Number of samples: 10000
Number of threads: 128
Loading map from file: /jet/home/ppareek/15418-Final-Project/maps/tests/density/Medium_Density.txt
Created Planner
Using Boost 1.66.0
Planning
Sampling 10000 points
Map width: 1000
Map height: 1000
Generation time: 4.50722e+07ns
Connection time: 2.63543e+08ns
Starting A*
10001
We have Reached the Goal!!!
All threads exited
Path Found
Query time: 1.30503e+08ns
Time taken: 0.439201 seconds
Path Nodes: 2296
Path Distance: 2180
Destroyed Planner
--------------------------------------------------------------------------------
Testing 1 Threads and 20,000 samples
Input file: /jet/home/ppareek/15418-Final-Project/maps/tests/density/Medium_Density.txt
Output file: /jet/home/ppareek/15418-Final-Project/paths/tests/density/Medium_Density_1_20000.txt
Start: 0,0
Goal: 999,999
Number of samples: 20000
Number of threads: 1
Loading map from file: /jet/home/ppareek/15418-Final-Project/maps/tests/density/Medium_Density.txt
Created Planner
Using Boost 1.66.0
Planning
Sampling 20000 points
Map width: 1000
Map height: 1000
Generation time: 2.18194e+06ns
Connection time: 1.1322e+09ns
Starting A*
20001
We have Reached the Goal!!!
All threads exited
Path Found
Query time: 8.60294e+07ns
Time taken: 1.22048 seconds
Path Nodes: 2111
Path Distance: 1998
Destroyed Planner
Testing 2 Threads and 20,000 samples
Input file: /jet/home/ppareek/15418-Final-Project/maps/tests/density/Medium_Density.txt
Output file: /jet/home/ppareek/15418-Final-Project/paths/tests/density/Medium_Density_2_20000.txt
Start: 0,0
Goal: 999,999
Number of samples: 20000
Number of threads: 2
Loading map from file: /jet/home/ppareek/15418-Final-Project/maps/tests/density/Medium_Density.txt
Created Planner
Using Boost 1.66.0
Planning
Sampling 20000 points
Map width: 1000
Map height: 1000
Generation time: 7.53217e+06ns
Connection time: 9.09754e+08ns
Starting A*
20001
We have Reached the Goal!!!
All threads exited
Path Found
Query time: 3.19288e+08ns
Time taken: 1.23667 seconds
Path Nodes: 2116
Path Distance: 2002
Destroyed Planner
Testing 4 Threads and 20,000 samples
Input file: /jet/home/ppareek/15418-Final-Project/maps/tests/density/Medium_Density.txt
Output file: /jet/home/ppareek/15418-Final-Project/paths/tests/density/Medium_Density_4_20000.txt
Start: 0,0
Goal: 999,999
Number of samples: 20000
Number of threads: 4
Loading map from file: /jet/home/ppareek/15418-Final-Project/maps/tests/density/Medium_Density.txt
Created Planner
Using Boost 1.66.0
Planning
Sampling 20000 points
Map width: 1000
Map height: 1000
Generation time: 1.86512e+07ns
Connection time: 6.85313e+08ns
Starting A*
20001
We have Reached the Goal!!!
All threads exited
Path Found
Query time: 3.82853e+08ns
Time taken: 1.08691 seconds
Path Nodes: 2106
Path Distance: 1998
Destroyed Planner
Testing 8 Threads and 20,000 samples
Input file: /jet/home/ppareek/15418-Final-Project/maps/tests/density/Medium_Density.txt
Output file: /jet/home/ppareek/15418-Final-Project/paths/tests/density/Medium_Density_8_20000.txt
Start: 0,0
Goal: 999,999
Number of samples: 20000
Number of threads: 8
Loading map from file: /jet/home/ppareek/15418-Final-Project/maps/tests/density/Medium_Density.txt
Created Planner
Using Boost 1.66.0
Planning
Sampling 20000 points
Map width: 1000
Map height: 1000
Generation time: 2.02795e+07ns
Connection time: 6.96379e+08ns
Starting A*
20001
We have Reached the Goal!!!
All threads exited
Path Found
Query time: 2.89663e+08ns
Time taken: 1.00641 seconds
Path Nodes: 2109
Path Distance: 1998
Destroyed Planner
Testing 16 Threads and 20,000 samples
Input file: /jet/home/ppareek/15418-Final-Project/maps/tests/density/Medium_Density.txt
Output file: /jet/home/ppareek/15418-Final-Project/paths/tests/density/Medium_Density_16_20000.txt
Start: 0,0
Goal: 999,999
Number of samples: 20000
Number of threads: 16
Loading map from file: /jet/home/ppareek/15418-Final-Project/maps/tests/density/Medium_Density.txt
Created Planner
Using Boost 1.66.0
Planning
Sampling 20000 points
Map width: 1000
Map height: 1000
Generation time: 3.33309e+07ns
Connection time: 7.26329e+08ns
Starting A*
20001
We have Reached the Goal!!!
All threads exited
Path Found
Query time: 2.06193e+08ns
Time taken: 0.965939 seconds
Path Nodes: 2112
Path Distance: 2006
Destroyed Planner
Testing 32 Threads and 20,000 samples
Input file: /jet/home/ppareek/15418-Final-Project/maps/tests/density/Medium_Density.txt
Output file: /jet/home/ppareek/15418-Final-Project/paths/tests/density/Medium_Density_32_20000.txt
Start: 0,0
Goal: 999,999
Number of samples: 20000
Number of threads: 32
Loading map from file: /jet/home/ppareek/15418-Final-Project/maps/tests/density/Medium_Density.txt
Created Planner
Using Boost 1.66.0
Planning
Sampling 20000 points
Map width: 1000
Map height: 1000
Generation time: 2.59354e+07ns
Connection time: 6.33589e+08ns
Starting A*
20001
We have Reached the Goal!!!
All threads exited
Path Found
Query time: 1.26015e+08ns
Time taken: 0.785611 seconds
Path Nodes: 2116
Path Distance: 2002
Destroyed Planner
Testing 64 Threads and 20,000 samples
Input file: /jet/home/ppareek/15418-Final-Project/maps/tests/density/Medium_Density.txt
Output file: /jet/home/ppareek/15418-Final-Project/paths/tests/density/Medium_Density_64_20000.txt
Start: 0,0
Goal: 999,999
Number of samples: 20000
Number of threads: 64
Loading map from file: /jet/home/ppareek/15418-Final-Project/maps/tests/density/Medium_Density.txt
Created Planner
Using Boost 1.66.0
Planning
Sampling 20000 points
Map width: 1000
Map height: 1000
Generation time: 4.72759e+07ns
Connection time: 6.68169e+08ns
Starting A*
20001
We have Reached the Goal!!!
All threads exited
Path Found
Query time: 1.21654e+08ns
Time taken: 0.837184 seconds
Path Nodes: 2105
Path Distance: 2000
Destroyed Planner
Testing 128 Threads and 20,000 samples
Input file: /jet/home/ppareek/15418-Final-Project/maps/tests/density/Medium_Density.txt
Output file: /jet/home/ppareek/15418-Final-Project/paths/tests/density/Medium_Density_128_20000.txt
Start: 0,0
Goal: 999,999
Number of samples: 20000
Number of threads: 128
Loading map from file: /jet/home/ppareek/15418-Final-Project/maps/tests/density/Medium_Density.txt
Created Planner
Using Boost 1.66.0
Planning
Sampling 20000 points
Map width: 1000
Map height: 1000
Generation time: 4.59182e+07ns
Connection time: 7.4526e+08ns
Starting A*
20001
We have Reached the Goal!!!
All threads exited
Path Found
Query time: 1.57992e+08ns
Time taken: 0.949304 seconds
Path Nodes: 2129
Path Distance: 2022
Destroyed Planner
--------------------------------------------------------------------------------
Done.
Testing /jet/home/ppareek/15418-Final-Project/scripts/test_scripts/test_medium.sh
----------------------------------- Testing Medium -----------------------------------
Testing 1 Thread and 5,000 samples
Input file: /jet/home/ppareek/15418-Final-Project/maps/tests/size/Medium.txt
Output file: /jet/home/ppareek/15418-Final-Project/paths/tests/size/Medium_1_5000.txt
Start: 0,0
Goal: 999,999
Number of samples: 5000
Number of threads: 1
Loading map from file: /jet/home/ppareek/15418-Final-Project/maps/tests/size/Medium.txt
Created Planner
Using Boost 1.66.0
Planning
Sampling 5000 points
Map width: 1000
Map height: 1000
Generation time: 508944ns
Connection time: 6.87652e+07ns
Starting A*
All threads exited
No Path Found
No path found. Planning Failed.
Query failed
Time taken: 0.069565 seconds
Path Nodes: 0
Path Distance: 0
Destroyed Planner
Testing 2 Threads and 5,000 samples
Input file: /jet/home/ppareek/15418-Final-Project/maps/tests/size/Medium.txt
Output file: /jet/home/ppareek/15418-Final-Project/paths/tests/size/Medium_2_5000.txt
Start: 0,0
Goal: 999,999
Number of samples: 5000
Number of threads: 2
Loading map from file: /jet/home/ppareek/15418-Final-Project/maps/tests/size/Medium.txt
Created Planner
Using Boost 1.66.0
Planning
Sampling 5000 points
Map width: 1000
Map height: 1000
Generation time: 2.5263e+06ns
Connection time: 5.48928e+07ns
Starting A*
All threads exited
No Path Found
No path found. Planning Failed.
Query failed
Time taken: 0.0745858 seconds
Path Nodes: 0
Path Distance: 0
Destroyed Planner
Testing 4 Threads and 5,000 samples
Input file: /jet/home/ppareek/15418-Final-Project/maps/tests/size/Medium.txt
Output file: /jet/home/ppareek/15418-Final-Project/paths/tests/size/Medium_4_5000.txt
Start: 0,0
Goal: 999,999
Number of samples: 5000
Number of threads: 4
Loading map from file: /jet/home/ppareek/15418-Final-Project/maps/tests/size/Medium.txt
Created Planner
Using Boost 1.66.0
Planning
Sampling 5000 points
Map width: 1000
Map height: 1000
Generation time: 4.46375e+06ns
Connection time: 4.2233e+07ns
Starting A*
All threads exited
No Path Found
No path found. Planning Failed.
Query failed
Time taken: 0.0468431 seconds
Path Nodes: 0
Path Distance: 0
Destroyed Planner
Testing 8 Threads and 5,000 samples
Input file: /jet/home/ppareek/15418-Final-Project/maps/tests/size/Medium.txt
Output file: /jet/home/ppareek/15418-Final-Project/paths/tests/size/Medium_8_5000.txt
Start: 0,0
Goal: 999,999
Number of samples: 5000
Number of threads: 8
Loading map from file: /jet/home/ppareek/15418-Final-Project/maps/tests/size/Medium.txt
Created Planner
Using Boost 1.66.0
Planning
Sampling 5000 points
Map width: 1000
Map height: 1000
Generation time: 6.14917e+06ns
Connection time: 4.30649e+07ns
Starting A*
All threads exited
No Path Found
No path found. Planning Failed.
Query failed
Time taken: 0.0724314 seconds
Path Nodes: 0
Path Distance: 0
Destroyed Planner
Testing 16 Threads and 5,000 samples
Input file: /jet/home/ppareek/15418-Final-Project/maps/tests/size/Medium.txt
Output file: /jet/home/ppareek/15418-Final-Project/paths/tests/size/Medium_16_5000.txt
Start: 0,0
Goal: 999,999
Number of samples: 5000
Number of threads: 16
Loading map from file: /jet/home/ppareek/15418-Final-Project/maps/tests/size/Medium.txt
Created Planner
Using Boost 1.66.0
Planning
Sampling 5000 points
Map width: 1000
Map height: 1000
Generation time: 9.54804e+06ns
Connection time: 4.37367e+07ns
Starting A*
5001
We have Reached the Goal!!!
All threads exited
Path Found
Query time: 1.48608e+07ns
Time taken: 0.0681922 seconds
Path Nodes: 2400
Path Distance: 2274
Destroyed Planner
Testing 32 Threads and 5,000 samples
Input file: /jet/home/ppareek/15418-Final-Project/maps/tests/size/Medium.txt
Output file: /jet/home/ppareek/15418-Final-Project/paths/tests/size/Medium_32_5000.txt
Start: 0,0
Goal: 999,999
Number of samples: 5000
Number of threads: 32
Loading map from file: /jet/home/ppareek/15418-Final-Project/maps/tests/size/Medium.txt
Created Planner
Using Boost 1.66.0
Planning
Sampling 5000 points
Map width: 1000
Map height: 1000
Generation time: 1.02029e+07ns
Connection time: 3.8327e+07ns
Starting A*
All threads exited
No Path Found
No path found. Planning Failed.
Query failed
Time taken: 0.0588861 seconds
Path Nodes: 0
Path Distance: 0
Destroyed Planner
Testing 64 Threads and 5,000 samples
Input file: /jet/home/ppareek/15418-Final-Project/maps/tests/size/Medium.txt
Output file: /jet/home/ppareek/15418-Final-Project/paths/tests/size/Medium_64_5000.txt
Start: 0,0
Goal: 999,999
Number of samples: 5000
Number of threads: 64
Loading map from file: /jet/home/ppareek/15418-Final-Project/maps/tests/size/Medium.txt
Created Planner
Using Boost 1.66.0
Planning
Sampling 5000 points
Map width: 1000
Map height: 1000
Generation time: 2.1787e+07ns
Connection time: 4.58642e+07ns
Starting A*
All threads exited
No Path Found
No path found. Planning Failed.
Query failed
Time taken: 0.0760628 seconds
Path Nodes: 0
Path Distance: 0
Destroyed Planner
Testing 128 Threads and 5,000 samples
Input file: /jet/home/ppareek/15418-Final-Project/maps/tests/size/Medium.txt
Output file: /jet/home/ppareek/15418-Final-Project/paths/tests/size/Medium_128_5000.txt
Start: 0,0
Goal: 999,999
Number of samples: 5000
Number of threads: 128
Loading map from file: /jet/home/ppareek/15418-Final-Project/maps/tests/size/Medium.txt
Created Planner
Using Boost 1.66.0
Planning
Sampling 5000 points
Map width: 1000
Map height: 1000
Generation time: 2.57328e+07ns
Connection time: 6.16398e+07ns
Starting A*
All threads exited
No Path Found
No path found. Planning Failed.
Query failed
Time taken: 0.678637 seconds
Path Nodes: 0
Path Distance: 0
Destroyed Planner
--------------------------------------------------------------------------------
Testing 1 Threads and 10,000 samples
Input file: /jet/home/ppareek/15418-Final-Project/maps/tests/size/Medium.txt
Output file: /jet/home/ppareek/15418-Final-Project/paths/tests/size/Medium_1_10000.txt
Start: 0,0
Goal: 999,999
Number of samples: 10000
Number of threads: 1
Loading map from file: /jet/home/ppareek/15418-Final-Project/maps/tests/size/Medium.txt
Created Planner
Using Boost 1.66.0
Planning
Sampling 10000 points
Map width: 1000
Map height: 1000
Generation time: 1.20506e+06ns
Connection time: 2.7832e+08ns
Starting A*
10001
We have Reached the Goal!!!
All threads exited
Path Found
Query time: 3.9147e+07ns
Time taken: 0.318751 seconds
Path Nodes: 2137
Path Distance: 2024
Destroyed Planner
Testing 2 Threads and 10,000 samples
Input file: /jet/home/ppareek/15418-Final-Project/maps/tests/size/Medium.txt
Output file: /jet/home/ppareek/15418-Final-Project/paths/tests/size/Medium_2_10000.txt
Start: 0,0
Goal: 999,999
Number of samples: 10000
Number of threads: 2
Loading map from file: /jet/home/ppareek/15418-Final-Project/maps/tests/size/Medium.txt
Created Planner
Using Boost 1.66.0
Planning
Sampling 10000 points
Map width: 1000
Map height: 1000
Generation time: 3.78696e+06ns
Connection time: 2.15516e+08ns
Starting A*
10001
We have Reached the Goal!!!
All threads exited
Path Found
Query time: 2.69765e+07ns
Time taken: 0.24634 seconds
Path Nodes: 2373
Path Distance: 2246
Destroyed Planner
Testing 4 Threads and 10,000 samples
Input file: /jet/home/ppareek/15418-Final-Project/maps/tests/size/Medium.txt
Output file: /jet/home/ppareek/15418-Final-Project/paths/tests/size/Medium_4_10000.txt
Start: 0,0
Goal: 999,999
Number of samples: 10000
Number of threads: 4
Loading map from file: /jet/home/ppareek/15418-Final-Project/maps/tests/size/Medium.txt
Created Planner
Using Boost 1.66.0
Planning
Sampling 10000 points
Map width: 1000
Map height: 1000
Generation time: 1.01336e+07ns
Connection time: 1.579e+08ns
Starting A*
10001
We have Reached the Goal!!!
All threads exited
Path Found
Query time: 7.95111e+07ns
Time taken: 0.247593 seconds
Path Nodes: 2167
Path Distance: 2050
Destroyed Planner
Testing 8 Threads and 10,000 samples
Input file: /jet/home/ppareek/15418-Final-Project/maps/tests/size/Medium.txt
Output file: /jet/home/ppareek/15418-Final-Project/paths/tests/size/Medium_8_10000.txt
Start: 0,0
Goal: 999,999
Number of samples: 10000
Number of threads: 8
Loading map from file: /jet/home/ppareek/15418-Final-Project/maps/tests/size/Medium.txt
Created Planner
Using Boost 1.66.0
Planning
Sampling 10000 points
Map width: 1000
Map height: 1000
Generation time: 1.61305e+07ns
Connection time: 1.55197e+08ns
Starting A*
10001
We have Reached the Goal!!!
All threads exited
Path Found
Query time: 5.58495e+07ns
Time taken: 0.227282 seconds
Path Nodes: 2175
Path Distance: 2062
Destroyed Planner
Testing 16 Threads and 10,000 samples
Input file: /jet/home/ppareek/15418-Final-Project/maps/tests/size/Medium.txt
Output file: /jet/home/ppareek/15418-Final-Project/paths/tests/size/Medium_16_10000.txt
Start: 0,0
Goal: 999,999
Number of samples: 10000
Number of threads: 16
Loading map from file: /jet/home/ppareek/15418-Final-Project/maps/tests/size/Medium.txt
Created Planner
Using Boost 1.66.0
Planning
Sampling 10000 points
Map width: 1000
Map height: 1000
Generation time: 1.32199e+07ns
Connection time: 1.89261e+08ns
Starting A*
10001
We have Reached the Goal!!!
All threads exited
Path Found
Query time: 5.82386e+07ns
Time taken: 0.260777 seconds
Path Nodes: 2177
Path Distance: 2064
Destroyed Planner
Testing 32 Threads and 10,000 samples
Input file: /jet/home/ppareek/15418-Final-Project/maps/tests/size/Medium.txt
Output file: /jet/home/ppareek/15418-Final-Project/paths/tests/size/Medium_32_10000.txt
Start: 0,0
Goal: 999,999
Number of samples: 10000
Number of threads: 32
Loading map from file: /jet/home/ppareek/15418-Final-Project/maps/tests/size/Medium.txt
Created Planner
Using Boost 1.66.0
Planning
[...]
Map height: 500
Generation time: 9.26383e+06ns
Connection time: 1.81625e+08ns
Starting A*
5001
We have Reached the Goal!!!
All threads exited
Path Found
Query time: 4.72925e+07ns
Time taken: 0.238238 seconds
Path Nodes: 1057
Path Distance: 1002
Destroyed Planner
Testing 32 Threads and 5,000 samples
Input file: /jet/home/ppareek/15418-Final-Project/maps/tests/size/Small.txt
Output file: /jet/home/ppareek/15418-Final-Project/paths/tests/size/Small_32_5000.txt
Start: 0,0
Goal: 499,499
Number of samples: 5000
Number of threads: 32
Loading map from file: /jet/home/ppareek/15418-Final-Project/maps/tests/size/Small.txt
Created Planner
Using Boost 1.66.0
Planning
Sampling 5000 points
Map width: 500
Map height: 500
Generation time: 9.51731e+06ns
Connection time: 1.42375e+08ns
Starting A*
5001
We have Reached the Goal!!!
All threads exited
Path Found
Query time: 3.36304e+07ns
Time taken: 0.1856 seconds
Path Nodes: 1054
Path Distance: 998
Destroyed Planner
Testing 64 Threads and 5,000 samples
Input file: /jet/home/ppareek/15418-Final-Project/maps/tests/size/Small.txt
Output file: /jet/home/ppareek/15418-Final-Project/paths/tests/size/Small_64_5000.txt
Start: 0,0
Goal: 499,499
Number of samples: 5000
Number of threads: 64
Loading map from file: /jet/home/ppareek/15418-Final-Project/maps/tests/size/Small.txt
Created Planner
Using Boost 1.66.0
Planning
Sampling 5000 points
Map width: 500
Map height: 500
Generation time: 1.88709e+07ns
Connection time: 1.63247e+08ns
Starting A*
5001
We have Reached the Goal!!!
All threads exited
Path Found
Query time: 2.14864e+07ns
Time taken: 0.203723 seconds
Path Nodes: 1083
Path Distance: 1028
Destroyed Planner
Testing 128 Threads and 5,000 samples
Input file: /jet/home/ppareek/15418-Final-Project/maps/tests/size/Small.txt
Output file: /jet/home/ppareek/15418-Final-Project/paths/tests/size/Small_128_5000.txt
Start: 0,0
Goal: 499,499
Number of samples: 5000
Number of threads: 128
Loading map from file: /jet/home/ppareek/15418-Final-Project/maps/tests/size/Small.txt
Created Planner
Using Boost 1.66.0
Planning
Sampling 5000 points
Map width: 500
Map height: 500
Generation time: 3.24988e+07ns
Connection time: 1.96547e+08ns
Starting A*
5001
We have Reached the Goal!!!
All threads exited
Path Found
Query time: 1.18648e+08ns
Time taken: 0.347851 seconds
Path Nodes: 1090
Path Distance: 1034
Destroyed Planner
--------------------------------------------------------------------------------
Done.
Testing /jet/home/ppareek/15418-Final-Project/scripts/test_scripts/test_sparse.sh
----------------------------------- Testing Sparse -----------------------------------
Testing 1 Thread and 5,000 samples
Input file: /jet/home/ppareek/15418-Final-Project/maps/tests/density/Sparse.txt
Output file: /jet/home/ppareek/15418-Final-Project/paths/tests/density/Sparse_1_5000.txt
Start: 0,0
Goal: 999,999
Number of samples: 5000
Number of threads: 1
Loading map from file: /jet/home/ppareek/15418-Final-Project/maps/tests/density/Sparse.txt
Created Planner
Using Boost 1.66.0
Planning
Sampling 5000 points
Map width: 1000
Map height: 1000
Generation time: 511049ns
Connection time: 6.8409e+07ns
Starting A*
5001
We have Reached the Goal!!!
All threads exited
Path Found
Query time: 4.12997e+06ns
Time taken: 0.0730941 seconds
Path Nodes: 2153
Path Distance: 2038
Destroyed Planner
Testing 2 Threads and 5,000 samples
Input file: /jet/home/ppareek/15418-Final-Project/maps/tests/density/Sparse.txt
Output file: /jet/home/ppareek/15418-Final-Project/paths/tests/density/Sparse_2_5000.txt
Start: 0,0
Goal: 999,999
Number of samples: 5000
Number of threads: 2
Loading map from file: /jet/home/ppareek/15418-Final-Project/maps/tests/density/Sparse.txt
Created Planner
Using Boost 1.66.0
Planning
Sampling 5000 points
Map width: 1000
Map height: 1000
Generation time: 1.76029e+06ns
Connection time: 5.5684e+07ns
Starting A*
5001
We have Reached the Goal!!!
All threads exited
Path Found
Query time: 1.6371e+07ns
Time taken: 0.0738626 seconds
Path Nodes: 2612
Path Distance: 2474
Destroyed Planner
Testing 4 Threads and 5,000 samples
Input file: /jet/home/ppareek/15418-Final-Project/maps/tests/density/Sparse.txt
Output file: /jet/home/ppareek/15418-Final-Project/paths/tests/density/Sparse_4_5000.txt
Start: 0,0
Goal: 999,999
Number of samples: 5000
Number of threads: 4
Loading map from file: /jet/home/ppareek/15418-Final-Project/maps/tests/density/Sparse.txt
Created Planner
Using Boost 1.66.0
Planning
Sampling 5000 points
Map width: 1000
Map height: 1000
Generation time: 5.07888e+06ns
Connection time: 4.08358e+07ns
Starting A*
5001
We have Reached the Goal!!!
All threads exited
Path Found
Query time: 2.46754e+07ns
Time taken: 0.0706285 seconds
Path Nodes: 2520
Path Distance: 2390
Destroyed Planner
Testing 8 Threads and 5,000 samples
Input file: /jet/home/ppareek/15418-Final-Project/maps/tests/density/Sparse.txt
Output file: /jet/home/ppareek/15418-Final-Project/paths/tests/density/Sparse_8_5000.txt
Start: 0,0
Goal: 999,999
Number of samples: 5000
Number of threads: 8
Loading map from file: /jet/home/ppareek/15418-Final-Project/maps/tests/density/Sparse.txt
Created Planner
Using Boost 1.66.0
Planning
Sampling 5000 points
Map width: 1000
Map height: 1000
Generation time: 7.53423e+06ns
Connection time: 3.90516e+07ns
Starting A*
5001
We have Reached the Goal!!!
All threads exited
Path Found
Query time: 1.85012e+07ns
Time taken: 0.0651252 seconds
Path Nodes: 2613
Path Distance: 2476
Destroyed Planner
Testing 16 Threads and 5,000 samples
Input file: /jet/home/ppareek/15418-Final-Project/maps/tests/density/Sparse.txt
Output file: /jet/home/ppareek/15418-Final-Project/paths/tests/density/Sparse_16_5000.txt
Start: 0,0
Goal: 999,999
Number of samples: 5000
Number of threads: 16
Loading map from file: /jet/home/ppareek/15418-Final-Project/maps/tests/density/Sparse.txt
Created Planner
Using Boost 1.66.0
Planning
Sampling 5000 points
Map width: 1000
Map height: 1000
Generation time: 6.66607e+06ns
Connection time: 4.2192e+07ns
Starting A*
All threads exited
No Path Found
No path found. Planning Failed.
Query failed
Time taken: 0.0489532 seconds
Path Nodes: 0
Path Distance: 0
Destroyed Planner
Testing 32 Threads and 5,000 samples
Input file: /jet/home/ppareek/15418-Final-Project/maps/tests/density/Sparse.txt
Output file: /jet/home/ppareek/15418-Final-Project/paths/tests/density/Sparse_32_5000.txt
Start: 0,0
Goal: 999,999
Number of samples: 5000
Number of threads: 32
Loading map from file: /jet/home/ppareek/15418-Final-Project/maps/tests/density/Sparse.txt
Created Planner
Using Boost 1.66.0
Planning
Sampling 5000 points
Map width: 1000
Map height: 1000
Generation time: 8.69284e+06ns
Connection time: 3.96042e+07ns
Starting A*
All threads exited
No Path Found
No path found. Planning Failed.
Query failed
Time taken: 0.0484156 seconds
Path Nodes: 0
Path Distance: 0
Destroyed Planner
Testing 64 Threads and 5,000 samples
Input file: /jet/home/ppareek/15418-Final-Project/maps/tests/density/Sparse.txt
Output file: /jet/home/ppareek/15418-Final-Project/paths/tests/density/Sparse_64_5000.txt
Start: 0,0
Goal: 999,999
Number of samples: 5000
Number of threads: 64
Loading map from file: /jet/home/ppareek/15418-Final-Project/maps/tests/density/Sparse.txt
Created Planner
Using Boost 1.66.0
Planning
Sampling 5000 points
Map width: 1000
Map height: 1000
Generation time: 2.16223e+07ns
Connection time: 4.83222e+07ns
Starting A*
All threads exited
No Path Found
No path found. Planning Failed.
Query failed
Time taken: 0.0702845 seconds
Path Nodes: 0
Path Distance: 0
Destroyed Planner
Testing 128 Threads and 5,000 samples
Input file: /jet/home/ppareek/15418-Final-Project/maps/tests/density/Sparse.txt
Output file: /jet/home/ppareek/15418-Final-Project/paths/tests/density/Sparse_128_5000.txt
Start: 0,0
Goal: 999,999
Number of samples: 5000
Number of threads: 128
Loading map from file: /jet/home/ppareek/15418-Final-Project/maps/tests/density/Sparse.txt
Created Planner
Using Boost 1.66.0
Planning
Sampling 5000 points
Map width: 1000
Map height: 1000
Generation time: 3.29897e+07ns
Connection time: 7.66638e+07ns
Starting A*
5001
We have Reached the Goal!!!
All threads exited
Path Found
Query time: 5.27525e+08ns
Time taken: 0.637559 seconds
Path Nodes: 2484
Path Distance: 2360
Destroyed Planner
--------------------------------------------------------------------------------
Testing 1 Threads and 10,000 samples
Input file: /jet/home/ppareek/15418-Final-Project/maps/tests/density/Sparse.txt
Output file: /jet/home/ppareek/15418-Final-Project/paths/tests/density/Sparse_1_10000.txt
Start: 0,0
Goal: 999,999
Number of samples: 10000
Number of threads: 1
Loading map from file: /jet/home/ppareek/15418-Final-Project/maps/tests/density/Sparse.txt
Created Planner
Using Boost 1.66.0
Planning
Sampling 10000 points
Map width: 1000
Map height: 1000
Generation time: 1.0584e+06ns
Connection time: 2.77423e+08ns
Starting A*
10001
We have Reached the Goal!!!
All threads exited
Path Found
Query time: 1.62988e+07ns
Time taken: 0.294863 seconds
Path Nodes: 2109
Path Distance: 1998
Destroyed Planner
Testing 2 Threads and 10,000 samples
Input file: /jet/home/ppareek/15418-Final-Project/maps/tests/density/Sparse.txt
Output file: /jet/home/ppareek/15418-Final-Project/paths/tests/density/Sparse_2_10000.txt
Start: 0,0
Goal: 999,999
Number of samples: 10000
Number of threads: 2
Loading map from file: /jet/home/ppareek/15418-Final-Project/maps/tests/density/Sparse.txt
Created Planner
Using Boost 1.66.0
Planning
Sampling 10000 points
Map width: 1000
Map height: 1000
Generation time: 3.26053e+06ns
Connection time: 2.06226e+08ns
Starting A*
10001
We have Reached the Goal!!!
All threads exited
Path Found
Query time: 1.41189e+07ns
Time taken: 0.223661 seconds
Path Nodes: 2174
Path Distance: 2060
Destroyed Planner
Testing 4 Threads and 10,000 samples
Input file: /jet/home/ppareek/15418-Final-Project/maps/tests/density/Sparse.txt
Output file: /jet/home/ppareek/15418-Final-Project/paths/tests/density/Sparse_4_10000.txt
Start: 0,0
Goal: 999,999
Number of samples: 10000
Number of threads: 4
Loading map from file: /jet/home/ppareek/15418-Final-Project/maps/tests/density/Sparse.txt
Created Planner
Using Boost 1.66.0
Planning
Sampling 10000 points
Map width: 1000
Map height: 1000
Generation time: 8.73004e+06ns
Connection time: 1.58733e+08ns
Starting A*
10001
We have Reached the Goal!!!
All threads exited
Path Found
Query time: 6.104e+07ns
Time taken: 0.228567 seconds
Path Nodes: 2105
Path Distance: 1998
Destroyed Planner
Testing 8 Threads and 10,000 samples
Input file: /jet/home/ppareek/15418-Final-Project/maps/tests/density/Sparse.txt
Output file: /jet/home/ppareek/15418-Final-Project/paths/tests/density/Sparse_8_10000.txt
Start: 0,0
Goal: 999,999
Number of samples: 10000
Number of threads: 8
Loading map from file: /jet/home/ppareek/15418-Final-Project/maps/tests/density/Sparse.txt
Created Planner
Using Boost 1.66.0
Planning
Sampling 10000 points
Map width: 1000
Map height: 1000
Generation time: 1.35232e+07ns
Connection time: 1.50539e+08ns
Starting A*
10001
We have Reached the Goal!!!
All threads exited
Path Found
Query time: 3.19645e+07ns
Time taken: 0.196071 seconds
Path Nodes: 2112
Path Distance: 2002
Destroyed Planner
Testing 16 Threads and 10,000 samples
Input file: /jet/home/ppareek/15418-Final-Project/maps/tests/density/Sparse.txt
Output file: /jet/home/ppareek/15418-Final-Project/paths/tests/density/Sparse_16_10000.txt
Start: 0,0
Goal: 999,999
Number of samples: 10000
Number of threads: 16
Loading map from file: /jet/home/ppareek/15418-Final-Project/maps/tests/density/Sparse.txt
Created Planner
Using Boost 1.66.0
Planning
Sampling 10000 points
Map width: 1000
Map height: 1000
Generation time: 1.18872e+07ns
Connection time: 1.68523e+08ns
Starting A*
10001
We have Reached the Goal!!!
All threads exited
Path Found
Query time: 3.55243e+07ns
Time taken: 0.215986 seconds
Path Nodes: 2109
Path Distance: 2002
Destroyed Planner
Testing 32 Threads and 10,000 samples
Input file: /jet/home/ppareek/15418-Final-Project/maps/tests/density/Sparse.txt
Output file: /jet/home/ppareek/15418-Final-Project/paths/tests/density/Sparse_32_10000.txt
Start: 0,0
Goal: 999,999
Number of samples: 10000
Number of threads: 32
Loading map from file: /jet/home/ppareek/15418-Final-Project/maps/tests/density/Sparse.txt
Created Planner
Using Boost 1.66.0
Planning
Sampling 10000 points
Map width: 1000
Map height: 1000
Generation time: 1.57649e+07ns
Connection time: 1.42125e+08ns
Starting A*
10001
We have Reached the Goal!!!
All threads exited
Path Found
Query time: 2.03955e+07ns
Time taken: 0.178342 seconds
Path Nodes: 2130
Path Distance: 2020
Destroyed Planner
Testing 64 Threads and 10,000 samples
Input file: /jet/home/ppareek/15418-Final-Project/maps/tests/density/Sparse.txt
Output file: /jet/home/ppareek/15418-Final-Project/paths/tests/density/Sparse_64_10000.txt
Start: 0,0
Goal: 999,999
Number of samples: 10000
Number of threads: 64
Loading map from file: /jet/home/ppareek/15418-Final-Project/maps/tests/density/Sparse.txt
Created Planner
Using Boost 1.66.0
Planning
Sampling 10000 points
Map width: 1000
Map height: 1000
Generation time: 1.81574e+07ns
Connection time: 1.6495e+08ns
Starting A*
10001
We have Reached the Goal!!!
All threads exited
Path Found
Query time: 1.84485e+07ns
Time taken: 0.201637 seconds
Path Nodes: 2158
Path Distance: 2048
Destroyed Planner
Testing 128 Threads and 10,000 samples
Input file: /jet/home/ppareek/15418-Final-Project/maps/tests/density/Sparse.txt
Output file: /jet/home/ppareek/15418-Final-Project/paths/tests/density/Sparse_128_10000.txt
Start: 0,0
Goal: 999,999
Number of samples: 10000
Number of threads: 128
Loading map from file: /jet/home/ppareek/15418-Final-Project/maps/tests/density/Sparse.txt
Created Planner
Using Boost 1.66.0
Planning
Sampling 10000 points
Map width: 1000
Map height: 1000
Generation time: 3.38489e+07ns
Connection time: 2.02978e+08ns
Starting A*
10001
We have Reached the Goal!!!
All threads exited
Path Found
Query time: 1.47552e+08ns
Time taken: 0.384492 seconds
Path Nodes: 2239
Path Distance: 2126
Destroyed Planner
--------------------------------------------------------------------------------
Testing 1 Threads and 20,000 samples
Input file: /jet/home/ppareek/15418-Final-Project/maps/tests/density/Sparse.txt
Output file: /jet/home/ppareek/15418-Final-Project/paths/tests/density/Sparse_1_20000.txt
Start: 0,0
Goal: 999,999
Number of samples: 20000
Number of threads: 1
Loading map from file: /jet/home/ppareek/15418-Final-Project/maps/tests/density/Sparse.txt
Created Planner
Using Boost 1.66.0
Planning
Sampling 20000 points
Map width: 1000
Map height: 1000
Generation time: 2.02982e+06ns
Connection time: 1.12096e+09ns
Starting A*
20001
We have Reached the Goal!!!
All threads exited
Path Found
Query time: 2.74289e+07ns
Time taken: 1.15049 seconds
Path Nodes: 2111
Path Distance: 1998
Destroyed Planner
Testing 2 Threads and 20,000 samples
Input file: /jet/home/ppareek/15418-Final-Project/maps/tests/density/Sparse.txt
Output file: /jet/home/ppareek/15418-Final-Project/paths/tests/density/Sparse_2_20000.txt
Start: 0,0
Goal: 999,999
Number of samples: 20000
Number of threads: 2
Loading map from file: /jet/home/ppareek/15418-Final-Project/maps/tests/density/Sparse.txt
Created Planner
Using Boost 1.66.0
Planning
Sampling 20000 points
Map width: 1000
Map height: 1000
Generation time: 6.60146e+06ns
Connection time: 8.1328e+08ns
Starting A*
20001
We have Reached the Goal!!!
All threads exited
Path Found
Query time: 2.01812e+08ns
Time taken: 1.02179 seconds
Path Nodes: 2111
Path Distance: 1998
Destroyed Planner
Testing 4 Threads and 20,000 samples
Input file: /jet/home/ppareek/15418-Final-Project/maps/tests/density/Sparse.txt
Output file: /jet/home/ppareek/15418-Final-Project/paths/tests/density/Sparse_4_20000.txt
Start: 0,0
Goal: 999,999
Number of samples: 20000
Number of threads: 4
Loading map from file: /jet/home/ppareek/15418-Final-Project/maps/tests/density/Sparse.txt
Created Planner
Using Boost 1.66.0
Planning
Sampling 20000 points
Map width: 1000
Map height: 1000
Generation time: 1.88892e+07ns
Connection time: 6.09356e+08ns
Starting A*
20001
We have Reached the Goal!!!
All threads exited
Path Found
Query time: 3.80731e+08ns
Time taken: 1.00907 seconds
Path Nodes: 2105
Path Distance: 1998
Destroyed Planner
Testing 8 Threads and 20,000 samples
Input file: /jet/home/ppareek/15418-Final-Project/maps/tests/density/Sparse.txt
Output file: /jet/home/ppareek/15418-Final-Project/paths/tests/density/Sparse_8_20000.txt
Start: 0,0
Goal: 999,999
Number of samples: 20000
Number of threads: 8
Loading map from file: /jet/home/ppareek/15418-Final-Project/maps/tests/density/Sparse.txt
Created Planner
Using Boost 1.66.0
Planning
Sampling 20000 points
Map width: 1000
Map height: 1000
Generation time: 2.54382e+07ns
Connection time: 5.91989e+08ns
Starting A*
20001
We have Reached the Goal!!!
All threads exited
Path Found
Query time: 2.74655e+08ns
Time taken: 0.892163 seconds
Path Nodes: 2106
Path Distance: 1998
Destroyed Planner
Testing 16 Threads and 20,000 samples
Input file: /jet/home/ppareek/15418-Final-Project/maps/tests/density/Sparse.txt
Output file: /jet/home/ppareek/15418-Final-Project/paths/tests/density/Sparse_16_20000.txt
Start: 0,0
Goal: 999,999
Number of samples: 20000
Number of threads: 16
Loading map from file: /jet/home/ppareek/15418-Final-Project/maps/tests/density/Sparse.txt
Created Planner
Using Boost 1.66.0
Planning
Sampling 20000 points
Map width: 1000
Map height: 1000
Generation time: 2.09901e+07ns
Connection time: 6.19079e+08ns
Starting A*
20001
We have Reached the Goal!!!
All threads exited
Path Found
Query time: 1.72659e+08ns
Time taken: 0.8128 seconds
Path Nodes: 2108
Path Distance: 1998
Destroyed Planner
Testing 32 Threads and 20,000 samples
Input file: /jet/home/ppareek/15418-Final-Project/maps/tests/density/Sparse.txt
Output file: /jet/home/ppareek/15418-Final-Project/paths/tests/density/Sparse_32_20000.txt
Start: 0,0
Goal: 999,999
Number of samples: 20000
Number of threads: 32
Loading map from file: /jet/home/ppareek/15418-Final-Project/maps/tests/density/Sparse.txt
Created Planner
Using Boost 1.66.0
Planning
Sampling 20000 points
Map width: 1000
Map height: 1000
Generation time: 2.04976e+07ns
Connection time: 5.47124e+08ns
Starting A*
20001
We have Reached the Goal!!!
All threads exited
Path Found
Query time: 1.01422e+08ns
Time taken: 0.669157 seconds
Path Nodes: 2107
Path Distance: 1998
Destroyed Planner
Testing 64 Threads and 20,000 samples
Input file: /jet/home/ppareek/15418-Final-Project/maps/tests/density/Sparse.txt
Output file: /jet/home/ppareek/15418-Final-Project/paths/tests/density/Sparse_64_20000.txt
Start: 0,0
Goal: 999,999
Number of samples: 20000
Number of threads: 64
Loading map from file: /jet/home/ppareek/15418-Final-Project/maps/tests/density/Sparse.txt
Created Planner
Using Boost 1.66.0
Planning
Sampling 20000 points
Map width: 1000
Map height: 1000
Generation time: 3.31664e+07ns
Connection time: 6.06483e+08ns
Starting A*
20001
We have Reached the Goal!!!
All threads exited
Path Found
Query time: 1.10498e+08ns
Time taken: 0.75024 seconds
Path Nodes: 2104
Path Distance: 1998
Destroyed Planner
Testing 128 Threads and 20,000 samples
Input file: /jet/home/ppareek/15418-Final-Project/maps/tests/density/Sparse.txt
Output file: /jet/home/ppareek/15418-Final-Project/paths/tests/density/Sparse_128_20000.txt
Start: 0,0
Goal: 999,999
Number of samples: 20000
Number of threads: 128
Loading map from file: /jet/home/ppareek/15418-Final-Project/maps/tests/density/Sparse.txt
Created Planner
Using Boost 1.66.0
Planning
Sampling 20000 points
Map width: 1000
Map height: 1000
Generation time: 5.37095e+07ns
Connection time: 6.64366e+08ns
Starting A*
20001
We have Reached the Goal!!!
All threads exited
Path Found
Query time: 1.03791e+08ns
Time taken: 0.82196 seconds
Path Nodes: 2105
Path Distance: 1998
Destroyed Planner
--------------------------------------------------------------------------------
Done.
