Testing all maps
================
Testing /jet/home/ppareek/15418-Final-Project/scripts/test_scripts/test_dense.sh
----------------------------------- Testing Dense -----------------------------------
Testing 1 Thread and 5,000 samples
Input file: /jet/home/ppareek/15418-Final-Project/maps/tests/density/Dense.txt
Output file: /jet/home/ppareek/15418-Final-Project/paths/tests/density/Dense_1_5000.txt
Start: 0,0
Goal: 999,999
Number of samples: 5000
Number of threads: 1
Loading map from file: /jet/home/ppareek/15418-Final-Project/maps/tests/density/Dense.txt
Created Planner
Using Boost 1.66.0
Planning
Sampling 5000 points
Map width: 1000
Map height: 1000
Generation time: 628802ns
Connection time: 7.18011e+07ns
Starting A*
5001
We have Reached the Goal!!!
All threads exited
Path Found
Query time: 1.00891e+07ns
Time taken: 0.0825659 seconds
Path Nodes: 2131
Path Distance: 2018
Destroyed Planner
Testing 2 Threads and 5,000 samples
Input file: /jet/home/ppareek/15418-Final-Project/maps/tests/density/Dense.txt
Output file: /jet/home/ppareek/15418-Final-Project/paths/tests/density/Dense_2_5000.txt
Start: 0,0
Goal: 999,999
Number of samples: 5000
Number of threads: 2
Loading map from file: /jet/home/ppareek/15418-Final-Project/maps/tests/density/Dense.txt
Created Planner
Using Boost 1.66.0
Planning
Sampling 5000 points
Map width: 1000
Map height: 1000
Generation time: 697501ns
Connection time: 7.04443e+07ns
Starting A*
5001
We have Reached the Goal!!!
All threads exited
Path Found
Query time: 2.21177e+07ns
Time taken: 0.0933052 seconds
Path Nodes: 2267
Path Distance: 2146
Destroyed Planner
Testing 4 Threads and 5,000 samples
Input file: /jet/home/ppareek/15418-Final-Project/maps/tests/density/Dense.txt
Output file: /jet/home/ppareek/15418-Final-Project/paths/tests/density/Dense_4_5000.txt
Start: 0,0
Goal: 999,999
Number of samples: 5000
Number of threads: 4
Loading map from file: /jet/home/ppareek/15418-Final-Project/maps/tests/density/Dense.txt
Created Planner
Using Boost 1.66.0
Planning
Sampling 5000 points
Map width: 1000
Map height: 1000
Generation time: 687362ns
Connection time: 6.23538e+07ns
Starting A*
5001
We have Reached the Goal!!!
All threads exited
Path Found
Query time: 3.83994e+07ns
Time taken: 0.101476 seconds
Path Nodes: 2230
Path Distance: 2116
Destroyed Planner
Testing 8 Threads and 5,000 samples
Input file: /jet/home/ppareek/15418-Final-Project/maps/tests/density/Dense.txt
Output file: /jet/home/ppareek/15418-Final-Project/paths/tests/density/Dense_8_5000.txt
Start: 0,0
Goal: 999,999
Number of samples: 5000
Number of threads: 8
Loading map from file: /jet/home/ppareek/15418-Final-Project/maps/tests/density/Dense.txt
Created Planner
Using Boost 1.66.0
Planning
Sampling 5000 points
Map width: 1000
Map height: 1000
Generation time: 697621ns
Connection time: 6.3819e+07ns
Starting A*
5001
We have Reached the Goal!!!
All threads exited
Path Found
Query time: 2.72219e+07ns
Time taken: 0.091781 seconds
Path Nodes: 2196
Path Distance: 2082
Destroyed Planner
Testing 16 Threads and 5,000 samples
Input file: /jet/home/ppareek/15418-Final-Project/maps/tests/density/Dense.txt
Output file: /jet/home/ppareek/15418-Final-Project/paths/tests/density/Dense_16_5000.txt
Start: 0,0
Goal: 999,999
Number of samples: 5000
Number of threads: 16
Loading map from file: /jet/home/ppareek/15418-Final-Project/maps/tests/density/Dense.txt
Created Planner
Using Boost 1.66.0
Planning
Sampling 5000 points
Map width: 1000
Map height: 1000
Generation time: 689776ns
Connection time: 6.71552e+07ns
Starting A*
5001
We have Reached the Goal!!!
All threads exited
Path Found
Query time: 2.30648e+07ns
Time taken: 0.0909695 seconds
Path Nodes: 2346
Path Distance: 2224
Destroyed Planner
Testing 32 Threads and 5,000 samples
Input file: /jet/home/ppareek/15418-Final-Project/maps/tests/density/Dense.txt
Output file: /jet/home/ppareek/15418-Final-Project/paths/tests/density/Dense_32_5000.txt
Start: 0,0
Goal: 999,999
Number of samples: 5000
Number of threads: 32
Loading map from file: /jet/home/ppareek/15418-Final-Project/maps/tests/density/Dense.txt
Created Planner
Using Boost 1.66.0
Planning
Sampling 5000 points
Map width: 1000
Map height: 1000
Generation time: 681069ns
Connection time: 6.26765e+07ns
Starting A*
5001
We have Reached the Goal!!!
All threads exited
Path Found
Query time: 1.35725e+07ns
Time taken: 0.0769663 seconds
Path Nodes: 2297
Path Distance: 2178
Destroyed Planner
Testing 64 Threads and 5,000 samples
Input file: /jet/home/ppareek/15418-Final-Project/maps/tests/density/Dense.txt
Output file: /jet/home/ppareek/15418-Final-Project/paths/tests/density/Dense_64_5000.txt
Start: 0,0
Goal: 999,999
Number of samples: 5000
Number of threads: 64
Loading map from file: /jet/home/ppareek/15418-Final-Project/maps/tests/density/Dense.txt
Created Planner
Using Boost 1.66.0
Planning
Sampling 5000 points
Map width: 1000
Map height: 1000
Generation time: 676191ns
Connection time: 8.29015e+07ns
Starting A*
5001
We have Reached the Goal!!!
All threads exited
Path Found
Query time: 1.38475e+07ns
Time taken: 0.0974855 seconds
Path Nodes: 2300
Path Distance: 2190
Destroyed Planner
Testing 128 Threads and 5,000 samples
Input file: /jet/home/ppareek/15418-Final-Project/maps/tests/density/Dense.txt
Output file: /jet/home/ppareek/15418-Final-Project/paths/tests/density/Dense_128_5000.txt
Start: 0,0
Goal: 999,999
Number of samples: 5000
Number of threads: 128
Loading map from file: /jet/home/ppareek/15418-Final-Project/maps/tests/density/Dense.txt
Created Planner
Using Boost 1.66.0
Planning
Sampling 5000 points
Map width: 1000
Map height: 1000
Generation time: 689055ns
Connection time: 1.01252e+08ns
Starting A*
5001
We have Reached the Goal!!!
All threads exited
Path Found
Query time: 2.38751e+08ns
Time taken: 0.340809 seconds
Path Nodes: 2259
Path Distance: 2148
Destroyed Planner
--------------------------------------------------------------------------------
Testing 1 Threads and 10,000 samples
Input file: /jet/home/ppareek/15418-Final-Project/maps/tests/density/Dense.txt
Output file: /jet/home/ppareek/15418-Final-Project/paths/tests/density/Dense_1_110000.txt
Start: 0,0
Goal: 999,999
Number of samples: 10000
Number of threads: 1
Loading map from file: /jet/home/ppareek/15418-Final-Project/maps/tests/density/Dense.txt
Created Planner
Using Boost 1.66.0
Planning
Sampling 10000 points
Map width: 1000
Map height: 1000
Generation time: 1.43247e+06ns
Connection time: 2.94947e+08ns
Starting A*
10001
We have Reached the Goal!!!
All threads exited
Path Found
Query time: 4.54109e+07ns
Time taken: 0.341852 seconds
Path Nodes: 2111
Path Distance: 1998
Destroyed Planner
Testing 2 Threads and 10,000 samples
Input file: /jet/home/ppareek/15418-Final-Project/maps/tests/density/Dense.txt
Output file: /jet/home/ppareek/15418-Final-Project/paths/tests/density/Dense_2_110000.txt
Start: 0,0
Goal: 999,999
Number of samples: 10000
Number of threads: 2
Loading map from file: /jet/home/ppareek/15418-Final-Project/maps/tests/density/Dense.txt
Created Planner
Using Boost 1.66.0
Planning
Sampling 10000 points
Map width: 1000
Map height: 1000
Generation time: 1.3488e+06ns
Connection time: 2.84879e+08ns
Starting A*
10001
We have Reached the Goal!!!
All threads exited
Path Found
Query time: 9.22912e+07ns
Time taken: 0.378584 seconds
Path Nodes: 2114
Path Distance: 2006
Destroyed Planner
Testing 4 Threads and 10,000 samples
Input file: /jet/home/ppareek/15418-Final-Project/maps/tests/density/Dense.txt
Output file: /jet/home/ppareek/15418-Final-Project/paths/tests/density/Dense_4_110000.txt
Start: 0,0
Goal: 999,999
Number of samples: 10000
Number of threads: 4
Loading map from file: /jet/home/ppareek/15418-Final-Project/maps/tests/density/Dense.txt
Created Planner
Using Boost 1.66.0
Planning
Sampling 10000 points
Map width: 1000
Map height: 1000
Generation time: 1.24723e+06ns
Connection time: 2.46495e+08ns
Starting A*
10001
We have Reached the Goal!!!
All threads exited
Path Found
Query time: 1.3866e+08ns
Time taken: 0.386465 seconds
Path Nodes: 2109
Path Distance: 1998
Destroyed Planner
Testing 8 Threads and 10,000 samples
Input file: /jet/home/ppareek/15418-Final-Project/maps/tests/density/Dense.txt
Output file: /jet/home/ppareek/15418-Final-Project/paths/tests/density/Dense_8_110000.txt
Start: 0,0
Goal: 999,999
Number of samples: 10000
Number of threads: 8
Loading map from file: /jet/home/ppareek/15418-Final-Project/maps/tests/density/Dense.txt
Created Planner
Using Boost 1.66.0
Planning
Sampling 10000 points
Map width: 1000
Map height: 1000
Generation time: 1.22745e+06ns
Connection time: 2.57617e+08ns
Starting A*
10001
We have Reached the Goal!!!
All threads exited
Path Found
Query time: 1.04531e+08ns
Time taken: 0.363419 seconds
Path Nodes: 2107
Path Distance: 2000
Destroyed Planner
Testing 16 Threads and 10,000 samples
Input file: /jet/home/ppareek/15418-Final-Project/maps/tests/density/Dense.txt
Output file: /jet/home/ppareek/15418-Final-Project/paths/tests/density/Dense_16_110000.txt
Start: 0,0
Goal: 999,999
Number of samples: 10000
Number of threads: 16
Loading map from file: /jet/home/ppareek/15418-Final-Project/maps/tests/density/Dense.txt
Created Planner
Using Boost 1.66.0
Planning
Sampling 10000 points
Map width: 1000
Map height: 1000
Generation time: 1.27927e+06ns
Connection time: 2.99605e+08ns
Starting A*
10001
We have Reached the Goal!!!
All threads exited
Path Found
Query time: 7.73848e+07ns
Time taken: 0.37832 seconds
Path Nodes: 2109
Path Distance: 2000
Destroyed Planner
Testing 32 Threads and 10,000 samples
Input file: /jet/home/ppareek/15418-Final-Project/maps/tests/density/Dense.txt
Output file: /jet/home/ppareek/15418-Final-Project/paths/tests/density/Dense_32_110000.txt
Start: 0,0
Goal: 999,999
Number of samples: 10000
Number of threads: 32
Loading map from file: /jet/home/ppareek/15418-Final-Project/maps/tests/density/Dense.txt
Created Planner
Using Boost 1.66.0
Planning
Sampling 10000 points
Map width: 1000
Map height: 1000
Generation time: 1.33083e+06ns
Connection time: 2.2764e+08ns
Starting A*
10001
We have Reached the Goal!!!
All threads exited
Path Found
Query time: 5.08013e+07ns
Time taken: 0.279821 seconds
Path Nodes: 2171
Path Distance: 2060
Destroyed Planner
Testing 64 Threads and 10,000 samples
Input file: /jet/home/ppareek/15418-Final-Project/maps/tests/density/Dense.txt
Output file: /jet/home/ppareek/15418-Final-Project/paths/tests/density/Dense_64_110000.txt
Start: 0,0
Goal: 999,999
Number of samples: 10000
Number of threads: 64
Loading map from file: /jet/home/ppareek/15418-Final-Project/maps/tests/density/Dense.txt
Created Planner
Using Boost 1.66.0
Planning
Sampling 10000 points
Map width: 1000
Map height: 1000
Generation time: 1.2729e+06ns
Connection time: 3.39289e+08ns
Starting A*
10001
We have Reached the Goal!!!
All threads exited
Path Found
Query time: 4.42975e+07ns
Time taken: 0.384982 seconds
Path Nodes: 2311
Path Distance: 2192
Destroyed Planner
Testing 128 Threads and 10,000 samples
Input file: /jet/home/ppareek/15418-Final-Project/maps/tests/density/Dense.txt
Output file: /jet/home/ppareek/15418-Final-Project/paths/tests/density/Dense_128_110000.txt
Start: 0,0
Goal: 999,999
Number of samples: 10000
Number of threads: 128
Loading map from file: /jet/home/ppareek/15418-Final-Project/maps/tests/density/Dense.txt
Created Planner
Using Boost 1.66.0
Planning
Sampling 10000 points
Map width: 1000
Map height: 1000
Generation time: 1.32315e+06ns
Connection time: 4.0596e+08ns
Starting A*
10001
We have Reached the Goal!!!
All threads exited
Path Found
Query time: 1.73582e+08ns
Time taken: 0.580935 seconds
Path Nodes: 2274
Path Distance: 2152
Destroyed Planner
--------------------------------------------------------------------------------
Testing 1 Threads and 20,000 samples
Input file: /jet/home/ppareek/15418-Final-Project/maps/tests/density/Dense.txt
Output file: /jet/home/ppareek/15418-Final-Project/paths/tests/density/Dense_1_20000.txt
Start: 0,0
Goal: 999,999
Number of samples: 20000
Number of threads: 1
Loading map from file: /jet/home/ppareek/15418-Final-Project/maps/tests/density/Dense.txt
Created Planner
Using Boost 1.66.0
Planning
Sampling 20000 points
Map width: 1000
Map height: 1000
Generation time: 2.9631e+06ns
Connection time: 1.19462e+09ns
Starting A*
20001
We have Reached the Goal!!!
All threads exited
Path Found
Query time: 5.21892e+07ns
Time taken: 1.24984 seconds
Path Nodes: 2119
Path Distance: 1998
Destroyed Planner
Testing 2 Threads and 20,000 samples
Input file: /jet/home/ppareek/15418-Final-Project/maps/tests/density/Dense.txt
Output file: /jet/home/ppareek/15418-Final-Project/paths/tests/density/Dense_2_20000.txt
Start: 0,0
Goal: 999,999
Number of samples: 20000
Number of threads: 2
Loading map from file: /jet/home/ppareek/15418-Final-Project/maps/tests/density/Dense.txt
Created Planner
Using Boost 1.66.0
Planning
Sampling 20000 points
Map width: 1000
Map height: 1000
Generation time: 2.49768e+06ns
Connection time: 1.06688e+09ns
Starting A*
20001
We have Reached the Goal!!!
All threads exited
Path Found
Query time: 4.94853e+08ns
Time taken: 1.56432 seconds
Path Nodes: 2109
Path Distance: 1998
Destroyed Planner
Testing 4 Threads and 20,000 samples
Input file: /jet/home/ppareek/15418-Final-Project/maps/tests/density/Dense.txt
Output file: /jet/home/ppareek/15418-Final-Project/paths/tests/density/Dense_4_20000.txt
Start: 0,0
Goal: 999,999
Number of samples: 20000
Number of threads: 4
Loading map from file: /jet/home/ppareek/15418-Final-Project/maps/tests/density/Dense.txt
Created Planner
Using Boost 1.66.0
Planning
Sampling 20000 points
Map width: 1000
Map height: 1000
Generation time: 2.58786e+06ns
Connection time: 9.79849e+08ns
Starting A*
20001
We have Reached the Goal!!!
All threads exited
Path Found
Query time: 7.11506e+08ns
Time taken: 1.69402 seconds
Path Nodes: 2106
Path Distance: 1998
Destroyed Planner
Testing 8 Threads and 20,000 samples
Input file: /jet/home/ppareek/15418-Final-Project/maps/tests/density/Dense.txt
Output file: /jet/home/ppareek/15418-Final-Project/paths/tests/density/Dense_8_20000.txt
Start: 0,0
Goal: 999,999
Number of samples: 20000
Number of threads: 8
Loading map from file: /jet/home/ppareek/15418-Final-Project/maps/tests/density/Dense.txt
Created Planner
Using Boost 1.66.0
Planning
Sampling 20000 points
Map width: 1000
Map height: 1000
Generation time: 2.39605e+06ns
Connection time: 1.04284e+09ns
Starting A*
20001
We have Reached the Goal!!!
All threads exited
Path Found
Query time: 4.3079e+08ns
Time taken: 1.47611 seconds
Path Nodes: 2110
Path Distance: 1998
Destroyed Planner
Testing 16 Threads and 20,000 samples
Input file: /jet/home/ppareek/15418-Final-Project/maps/tests/density/Dense.txt
Output file: /jet/home/ppareek/15418-Final-Project/paths/tests/density/Dense_16_20000.txt
Start: 0,0
Goal: 999,999
Number of samples: 20000
Number of threads: 16
Loading map from file: /jet/home/ppareek/15418-Final-Project/maps/tests/density/Dense.txt
Created Planner
Using Boost 1.66.0
Planning
Sampling 20000 points
Map width: 1000
Map height: 1000
Generation time: 2.47099e+06ns
Connection time: 1.14047e+09ns
Starting A*
20001
We have Reached the Goal!!!
All threads exited
Path Found
Query time: 3.30152e+08ns
Time taken: 1.47317 seconds
Path Nodes: 2118
Path Distance: 1998
Destroyed Planner
Testing 32 Threads and 20,000 samples
Input file: /jet/home/ppareek/15418-Final-Project/maps/tests/density/Dense.txt
Output file: /jet/home/ppareek/15418-Final-Project/paths/tests/density/Dense_32_20000.txt
Start: 0,0
Goal: 999,999
Number of samples: 20000
Number of threads: 32
Loading map from file: /jet/home/ppareek/15418-Final-Project/maps/tests/density/Dense.txt
Created Planner
Using Boost 1.66.0
Planning
Sampling 20000 points
Map width: 1000
Map height: 1000
Generation time: 2.50006e+06ns
Connection time: 1.22137e+09ns
Starting A*
20001
We have Reached the Goal!!!
All threads exited
Path Found
Query time: 2.3303e+08ns
Time taken: 1.45697 seconds
Path Nodes: 2109
Path Distance: 1998
Destroyed Planner
Testing 64 Threads and 20,000 samples
Input file: /jet/home/ppareek/15418-Final-Project/maps/tests/density/Dense.txt
Output file: /jet/home/ppareek/15418-Final-Project/paths/tests/density/Dense_64_20000.txt
Start: 0,0
Goal: 999,999
Number of samples: 20000
Number of threads: 64
Loading map from file: /jet/home/ppareek/15418-Final-Project/maps/tests/density/Dense.txt
Created Planner
Using Boost 1.66.0
Planning
Sampling 20000 points
Map width: 1000
Map height: 1000
Generation time: 2.51926e+06ns
Connection time: 1.36865e+09ns
Starting A*
20001
We have Reached the Goal!!!
All threads exited
Path Found
Query time: 2.45823e+08ns
Time taken: 1.61711 seconds
Path Nodes: 2105
Path Distance: 1998
Destroyed Planner
Testing 128 Threads and 20,000 samples
Input file: /jet/home/ppareek/15418-Final-Project/maps/tests/density/Dense.txt
Output file: /jet/home/ppareek/15418-Final-Project/paths/tests/density/Dense_128_20000.txt
Start: 0,0
Goal: 999,999
Number of samples: 20000
Number of threads: 128
Loading map from file: /jet/home/ppareek/15418-Final-Project/maps/tests/density/Dense.txt
Created Planner
Using Boost 1.66.0
Planning
Sampling 20000 points
Map width: 1000
Map height: 1000
Generation time: 2.59063e+06ns
Connection time: 1.71812e+09ns
Starting A*
20001
We have Reached the Goal!!!
All threads exited
Path Found
Query time: 2.77502e+08ns
Time taken: 1.99858 seconds
Path Nodes: 2108
Path Distance: 1998
Destroyed Planner
--------------------------------------------------------------------------------
Done.
Testing /jet/home/ppareek/15418-Final-Project/scripts/test_scripts/test_empty.sh
----------------------------------- Testing Empty -----------------------------------
Testing 1 Thread and 5,000 samples
Input file: /jet/home/ppareek/15418-Final-Project/maps/tests/density/Empty.txt
Output file: /jet/home/ppareek/15418-Final-Project/paths/tests/density/Empty_1_5000.txt
Start: 0,0
Goal: 999,999
Number of samples: 5000
Number of threads: 1
Loading map from file: /jet/home/ppareek/15418-Final-Project/maps/tests/density/Empty.txt
Created Planner
Using Boost 1.66.0
Planning
Sampling 5000 points
Map width: 1000
Map height: 1000
Generation time: 370937ns
Connection time: 6.6772e+07ns
Starting A*
All threads exited
No Path Found
No path found. Planning Failed.
Query failed
Time taken: 0.0754 seconds
Path Nodes: 0
Path Distance: 0
Destroyed Planner
Testing 2 Threads and 5,000 samples
Input file: /jet/home/ppareek/15418-Final-Project/maps/tests/density/Empty.txt
Output file: /jet/home/ppareek/15418-Final-Project/paths/tests/density/Empty_2_5000.txt
Start: 0,0
Goal: 999,999
Number of samples: 5000
Number of threads: 2
Loading map from file: /jet/home/ppareek/15418-Final-Project/maps/tests/density/Empty.txt
Created Planner
Using Boost 1.66.0
Planning
Sampling 5000 points
Map width: 1000
Map height: 1000
Generation time: 408348ns
Connection time: 5.19041e+07ns
Starting A*
All threads exited
No Path Found
No path found. Planning Failed.
Query failed
Time taken: 0.0666532 seconds
Path Nodes: 0
Path Distance: 0
Destroyed Planner
Testing 4 Threads and 5,000 samples
Input file: /jet/home/ppareek/15418-Final-Project/maps/tests/density/Empty.txt
Output file: /jet/home/ppareek/15418-Final-Project/paths/tests/density/Empty_4_5000.txt
Start: 0,0
Goal: 999,999
Number of samples: 5000
Number of threads: 4
Loading map from file: /jet/home/ppareek/15418-Final-Project/maps/tests/density/Empty.txt
Created Planner
Using Boost 1.66.0
Planning
Sampling 5000 points
Map width: 1000
Map height: 1000
Generation time: 389412ns
Connection time: 3.6189e+07ns
Starting A*
All threads exited
No Path Found
No path found. Planning Failed.
Query failed
Time taken: 0.0590458 seconds
Path Nodes: 0
Path Distance: 0
Destroyed Planner
Testing 8 Threads and 5,000 samples
Input file: /jet/home/ppareek/15418-Final-Project/maps/tests/density/Empty.txt
Output file: /jet/home/ppareek/15418-Final-Project/paths/tests/density/Empty_8_5000.txt
Start: 0,0
Goal: 999,999
Number of samples: 5000
Number of threads: 8
Loading map from file: /jet/home/ppareek/15418-Final-Project/maps/tests/density/Empty.txt
Created Planner
Using Boost 1.66.0
Planning
Sampling 5000 points
Map width: 1000
Map height: 1000
Generation time: 413237ns
Connection time: 3.02301e+07ns
Starting A*
All threads exited
No Path Found
No path found. Planning Failed.
Query failed
Time taken: 0.0467651 seconds
Path Nodes: 0
Path Distance: 0
Destroyed Planner
Testing 16 Threads and 5,000 samples
Input file: /jet/home/ppareek/15418-Final-Project/maps/tests/density/Empty.txt
Output file: /jet/home/ppareek/15418-Final-Project/paths/tests/density/Empty_16_5000.txt
Start: 0,0
Goal: 999,999
Number of samples: 5000
Number of threads: 16
Loading map from file: /jet/home/ppareek/15418-Final-Project/maps/tests/density/Empty.txt
Created Planner
Using Boost 1.66.0
Planning
Sampling 5000 points
Map width: 1000
Map height: 1000
Generation time: 401254ns
Connection time: 3.47203e+07ns
Starting A*
All threads exited
No Path Found
No path found. Planning Failed.
Query failed
Time taken: 0.0473908 seconds
Path Nodes: 0
Path Distance: 0
Destroyed Planner
Testing 32 Threads and 5,000 samples
Input file: /jet/home/ppareek/15418-Final-Project/maps/tests/density/Empty.txt
Output file: /jet/home/ppareek/15418-Final-Project/paths/tests/density/Empty_32_5000.txt
Start: 0,0
Goal: 999,999
Number of samples: 5000
Number of threads: 32
Loading map from file: /jet/home/ppareek/15418-Final-Project/maps/tests/density/Empty.txt
Created Planner
Using Boost 1.66.0
Planning
Sampling 5000 points
Map width: 1000
Map height: 1000
Generation time: 383791ns
Connection time: 3.16315e+07ns
Starting A*
All threads exited
No Path Found
No path found. Planning Failed.
Query failed
Time taken: 0.0409146 seconds
Path Nodes: 0
Path Distance: 0
Destroyed Planner
Testing 64 Threads and 5,000 samples
Input file: /jet/home/ppareek/15418-Final-Project/maps/tests/density/Empty.txt
Output file: /jet/home/ppareek/15418-Final-Project/paths/tests/density/Empty_64_5000.txt
Start: 0,0
Goal: 999,999
Number of samples: 5000
Number of threads: 64
Loading map from file: /jet/home/ppareek/15418-Final-Project/maps/tests/density/Empty.txt
Created Planner
Using Boost 1.66.0
Planning
Sampling 5000 points
Map width: 1000
Map height: 1000
Generation time: 390404ns
Connection time: 4.19436e+07ns
Starting A*
All threads exited
No Path Found
No path found. Planning Failed.
Query failed
Time taken: 0.0502256 seconds
Path Nodes: 0
Path Distance: 0
Destroyed Planner
Testing 128 Threads and 5,000 samples
Input file: /jet/home/ppareek/15418-Final-Project/maps/tests/density/Empty.txt
Output file: /jet/home/ppareek/15418-Final-Project/paths/tests/density/Empty_128_5000.txt
Start: 0,0
Goal: 999,999
Number of samples: 5000
Number of threads: 128
Loading map from file: /jet/home/ppareek/15418-Final-Project/maps/tests/density/Empty.txt
Created Planner
Using Boost 1.66.0
Planning
Sampling 5000 points
Map width: 1000
Map height: 1000
Generation time: 430419ns
Connection time: 7.39037e+07ns
Starting A*
All threads exited
No Path Found
No path found. Planning Failed.
Query failed
Time taken: 0.557968 seconds
Path Nodes: 0
Path Distance: 0
Destroyed Planner
--------------------------------------------------------------------------------
Testing 1 Threads and 10,000 samples
Input file: /jet/home/ppareek/15418-Final-Project/maps/tests/density/Empty.txt
Output file: /jet/home/ppareek/15418-Final-Project/paths/tests/density/Empty_1_10000.txt
Start: 0,0
Goal: 999,999
Number of samples: 10000
Number of threads: 1
Loading map from file: /jet/home/ppareek/15418-Final-Project/maps/tests/density/Empty.txt
Created Planner
Using Boost 1.66.0
Planning
Sampling 10000 points
Map width: 1000
Map height: 1000
Generation time: 993567ns
Connection time: 2.73681e+08ns
Starting A*
10001
We have Reached the Goal!!!
All threads exited
Path Found
Query time: 1.02838e+07ns
Time taken: 0.285008 seconds
Path Nodes: 2103
Path Distance: 1998
Destroyed Planner
Testing 2 Threads and 10,000 samples
Input file: /jet/home/ppareek/15418-Final-Project/maps/tests/density/Empty.txt
Output file: /jet/home/ppareek/15418-Final-Project/paths/tests/density/Empty_2_10000.txt
Start: 0,0
Goal: 999,999
Number of samples: 10000
Number of threads: 2
Loading map from file: /jet/home/ppareek/15418-Final-Project/maps/tests/density/Empty.txt
Created Planner
Using Boost 1.66.0
Planning
Sampling 10000 points
Map width: 1000
Map height: 1000
Generation time: 640183ns
Connection time: 1.91039e+08ns
Starting A*
10001
We have Reached the Goal!!!
All threads exited
Path Found
Query time: 2.22526e+07ns
Time taken: 0.21398 seconds
Path Nodes: 2315
Path Distance: 2192
Destroyed Planner
Testing 4 Threads and 10,000 samples
Input file: /jet/home/ppareek/15418-Final-Project/maps/tests/density/Empty.txt
Output file: /jet/home/ppareek/15418-Final-Project/paths/tests/density/Empty_4_10000.txt
Start: 0,0
Goal: 999,999
Number of samples: 10000
Number of threads: 4
Loading map from file: /jet/home/ppareek/15418-Final-Project/maps/tests/density/Empty.txt
Created Planner
Using Boost 1.66.0
Planning
Sampling 10000 points
Map width: 1000
Map height: 1000
Generation time: 667805ns
Connection time: 1.39264e+08ns
Starting A*
10001
We have Reached the Goal!!!
All threads exited
Path Found
Query time: 8.78031e+07ns
Time taken: 0.227779 seconds
Path Nodes: 2107
Path Distance: 1998
Destroyed Planner
Testing 8 Threads and 10,000 samples
Input file: /jet/home/ppareek/15418-Final-Project/maps/tests/density/Empty.txt
Output file: /jet/home/ppareek/15418-Final-Project/paths/tests/density/Empty_8_10000.txt
Start: 0,0
Goal: 999,999
Number of samples: 10000
Number of threads: 8
Loading map from file: /jet/home/ppareek/15418-Final-Project/maps/tests/density/Empty.txt
Created Planner
Using Boost 1.66.0
Planning
Sampling 10000 points
Map width: 1000
Map height: 1000
Generation time: 759568ns
Connection time: 1.27508e+08ns
Starting A*
10001
We have Reached the Goal!!!
All threads exited
Path Found
Query time: 5.94309e+07ns
Time taken: 0.187739 seconds
Path Nodes: 2124
Path Distance: 2012
Destroyed Planner
Testing 16 Threads and 10,000 samples
Input file: /jet/home/ppareek/15418-Final-Project/maps/tests/density/Empty.txt
Output file: /jet/home/ppareek/15418-Final-Project/paths/tests/density/Empty_16_10000.txt
Start: 0,0
Goal: 999,999
Number of samples: 10000
Number of threads: 16
Loading map from file: /jet/home/ppareek/15418-Final-Project/maps/tests/density/Empty.txt
Created Planner
Using Boost 1.66.0
Planning
Sampling 10000 points
Map width: 1000
Map height: 1000
Generation time: 754388ns
Connection time: 1.38917e+08ns
Starting A*
10001
We have Reached the Goal!!!
All threads exited
Path Found
Query time: 3.52342e+07ns
Time taken: 0.174958 seconds
Path Nodes: 2113
Path Distance: 2004
Destroyed Planner
Testing 32 Threads and 10,000 samples
Input file: /jet/home/ppareek/15418-Final-Project/maps/tests/density/Empty.txt
Output file: /jet/home/ppareek/15418-Final-Project/paths/tests/density/Empty_32_10000.txt
Start: 0,0
Goal: 999,999
Number of samples: 10000
Number of threads: 32
Loading map from file: /jet/home/ppareek/15418-Final-Project/maps/tests/density/Empty.txt
Created Planner
Using Boost 1.66.0
Planning
Sampling 10000 points
Map width: 1000
Map height: 1000
Generation time: 739550ns
Connection time: 1.24958e+08ns
Starting A*
10001
We have Reached the Goal!!!
All threads exited
Path Found
Query time: 2.30122e+07ns
Time taken: 0.148766 seconds
Path Nodes: 2109
Path Distance: 2002
Destroyed Planner
Testing 64 Threads and 10,000 samples
Input file: /jet/home/ppareek/15418-Final-Project/maps/tests/density/Empty.txt
Output file: /jet/home/ppareek/15418-Final-Project/paths/tests/density/Empty_64_10000.txt
Start: 0,0
Goal: 999,999
Number of samples: 10000
Number of threads: 64
Loading map from file: /jet/home/ppareek/15418-Final-Project/maps/tests/density/Empty.txt
Created Planner
Using Boost 1.66.0
Planning
Sampling 10000 points
Map width: 1000
Map height: 1000
Generation time: 737296ns
Connection time: 1.49976e+08ns
Starting A*
10001
We have Reached the Goal!!!
All threads exited
Path Found
Query time: 2.61918e+07ns
Time taken: 0.177097 seconds
Path Nodes: 2122
Path Distance: 2012
Destroyed Planner
Testing 128 Threads and 10,000 samples
Input file: /jet/home/ppareek/15418-Final-Project/maps/tests/density/Empty.txt
Output file: /jet/home/ppareek/15418-Final-Project/paths/tests/density/Empty_128_10000.txt
Start: 0,0
Goal: 999,999
Number of samples: 10000
Number of threads: 128
Loading map from file: /jet/home/ppareek/15418-Final-Project/maps/tests/density/Empty.txt
Created Planner
Using Boost 1.66.0
Planning
Sampling 10000 points
Map width: 1000
Map height: 1000
Generation time: 779084ns
Connection time: 2.02619e+08ns
Starting A*
10001
We have Reached the Goal!!!
All threads exited
Path Found
Query time: 1.84989e+08ns
Time taken: 0.388649 seconds
Path Nodes: 2172
Path Distance: 2060
Destroyed Planner
--------------------------------------------------------------------------------
Testing 1 Threads and 20,000 samples
Input file: /jet/home/ppareek/15418-Final-Project/maps/tests/density/Empty.txt
Output file: /jet/home/ppareek/15418-Final-Project/paths/tests/density/Empty_1_20000.txt
Start: 0,0
Goal: 999,999
Number of samples: 20000
Number of threads: 1
Loading map from file: /jet/home/ppareek/15418-Final-Project/maps/tests/density/Empty.txt
Created Planner
Using Boost 1.66.0
Planning
Sampling 20000 points
Map width: 1000
Map height: 1000
Generation time: 1.64225e+06ns
Connection time: 1.10124e+09ns
Starting A*
20001
We have Reached the Goal!!!
All threads exited
Path Found
Query time: 2.78101e+07ns
Time taken: 1.13077 seconds
Path Nodes: 2109
Path Distance: 1998
Destroyed Planner
Testing 2 Threads and 20,000 samples
Input file: /jet/home/ppareek/15418-Final-Project/maps/tests/density/Empty.txt
Output file: /jet/home/ppareek/15418-Final-Project/paths/tests/density/Empty_2_20000.txt
Start: 0,0
Goal: 999,999
Number of samples: 20000
Number of threads: 2
Loading map from file: /jet/home/ppareek/15418-Final-Project/maps/tests/density/Empty.txt
Created Planner
Using Boost 1.66.0
Planning
Sampling 20000 points
Map width: 1000
Map height: 1000
Generation time: 1.48979e+06ns
Connection time: 7.97127e+08ns
Starting A*
20001
We have Reached the Goal!!!
All threads exited
Path Found
Query time: 3.12825e+07ns
Time taken: 0.829961 seconds
Path Nodes: 2112
Path Distance: 1998
Destroyed Planner
Testing 4 Threads and 20,000 samples
Input file: /jet/home/ppareek/15418-Final-Project/maps/tests/density/Empty.txt
Output file: /jet/home/ppareek/15418-Final-Project/paths/tests/density/Empty_4_20000.txt
Start: 0,0
Goal: 999,999
Number of samples: 20000
Number of threads: 4
Loading map from file: /jet/home/ppareek/15418-Final-Project/maps/tests/density/Empty.txt
Created Planner
Using Boost 1.66.0
Planning
Sampling 20000 points
Map width: 1000
Map height: 1000
Generation time: 1.44602e+06ns
Connection time: 5.48507e+08ns
Starting A*
20001
We have Reached the Goal!!!
All threads exited
Path Found
Query time: 3.15381e+08ns
Time taken: 0.865419 seconds
Path Nodes: 2104
Path Distance: 1998
Destroyed Planner
Testing 8 Threads and 20,000 samples
Input file: /jet/home/ppareek/15418-Final-Project/maps/tests/density/Empty.txt
Output file: /jet/home/ppareek/15418-Final-Project/paths/tests/density/Empty_8_20000.txt
Start: 0,0
Goal: 999,999
Number of samples: 20000
Number of threads: 8
Loading map from file: /jet/home/ppareek/15418-Final-Project/maps/tests/density/Empty.txt
Created Planner
Using Boost 1.66.0
Planning
Sampling 20000 points
Map width: 1000
Map height: 1000
Generation time: 1.48018e+06ns
Connection time: 4.9883e+08ns
Starting A*
20001
We have Reached the Goal!!!
All threads exited
Path Found
Query time: 2.2916e+08ns
Time taken: 0.729534 seconds
Path Nodes: 2107
Path Distance: 1998
Destroyed Planner
Testing 16 Threads and 20,000 samples
Input file: /jet/home/ppareek/15418-Final-Project/maps/tests/density/Empty.txt
Output file: /jet/home/ppareek/15418-Final-Project/paths/tests/density/Empty_16_20000.txt
Start: 0,0
Goal: 999,999
Number of samples: 20000
Number of threads: 16
Loading map from file: /jet/home/ppareek/15418-Final-Project/maps/tests/density/Empty.txt
Created Planner
Using Boost 1.66.0
Planning
Sampling 20000 points
Map width: 1000
Map height: 1000
Generation time: 1.40865e+06ns
Connection time: 5.35358e+08ns
Starting A*
20001
We have Reached the Goal!!!
All threads exited
Path Found
Query time: 1.42153e+08ns
Time taken: 0.678968 seconds
Path Nodes: 2109
Path Distance: 1998
Destroyed Planner
Testing 32 Threads and 20,000 samples
Input file: /jet/home/ppareek/15418-Final-Project/maps/tests/density/Empty.txt
Output file: /jet/home/ppareek/15418-Final-Project/paths/tests/density/Empty_32_20000.txt
Start: 0,0
Goal: 999,999
Number of samples: 20000
Number of threads: 32
Loading map from file: /jet/home/ppareek/15418-Final-Project/maps/tests/density/Empty.txt
Created Planner
Using Boost 1.66.0
Planning
Sampling 20000 points
Map width: 1000
Map height: 1000
Generation time: 1.42235e+06ns
Connection time: 4.57803e+08ns
Starting A*
20001
We have Reached the Goal!!!
All threads exited
Path Found
Query time: 9.51668e+07ns
Time taken: 0.554453 seconds
Path Nodes: 2111
Path Distance: 1998
Destroyed Planner
Testing 64 Threads and 20,000 samples
Input file: /jet/home/ppareek/15418-Final-Project/maps/tests/density/Empty.txt
Output file: /jet/home/ppareek/15418-Final-Project/paths/tests/density/Empty_64_20000.txt
Start: 0,0
Goal: 999,999
Number of samples: 20000
Number of threads: 64
Loading map from file: /jet/home/ppareek/15418-Final-Project/maps/tests/density/Empty.txt
Created Planner
Using Boost 1.66.0
Planning
Sampling 20000 points
Map width: 1000
Map height: 1000
Generation time: 1.38926e+06ns
Connection time: 5.63092e+08ns
Starting A*
20001
We have Reached the Goal!!!
All threads exited
Path Found
Query time: 1.23129e+08ns
Time taken: 0.687717 seconds
Path Nodes: 2102
Path Distance: 1998
Destroyed Planner
Testing 128 Threads and 20,000 samples
Input file: /jet/home/ppareek/15418-Final-Project/maps/tests/density/Empty.txt
Output file: /jet/home/ppareek/15418-Final-Project/paths/tests/density/Empty_128_20000.txt
Start: 0,0
Goal: 999,999
Number of samples: 20000
Number of threads: 128
Loading map from file: /jet/home/ppareek/15418-Final-Project/maps/tests/density/Empty.txt
Created Planner
Using Boost 1.66.0
Planning
Sampling 20000 points
Map width: 1000
Map height: 1000
Generation time: 1.6021e+06ns
Connection time: 6.52339e+08ns
Starting A*
20001
We have Reached the Goal!!!
All threads exited
Path Found
Query time: 1.11747e+08ns
Time taken: 0.765785 seconds
Path Nodes: 2109
Path Distance: 2004
Destroyed Planner
--------------------------------------------------------------------------------
Done.
Testing /jet/home/ppareek/15418-Final-Project/scripts/test_scripts/test_large.sh
----------------------------------- Testing Large -----------------------------------
Testing 1 Thread and 20,000 samples
Input file: /jet/home/ppareek/15418-Final-Project/maps/tests/size/Large.txt
Output file: /jet/home/ppareek/15418-Final-Project/paths/tests/size/Large_1_20000.txt
Start: 0,0
Goal: 1999,1999
Number of samples: 20000
Number of threads: 1
Loading map from file: /jet/home/ppareek/15418-Final-Project/maps/tests/size/Large.txt
Created Planner
Using Boost 1.66.0
Planning
Sampling 20000 points
Map width: 2000
Map height: 2000
Generation time: 3.33399e+06ns
Connection time: 1.03175e+09ns
Starting A*
All threads exited
No Path Found
No path found. Planning Failed.
Query failed
Time taken: 1.03528 seconds
Path Nodes: 0
Path Distance: 0
Destroyed Planner
Testing 2 Threads and 20,000 samples
Input file: /jet/home/ppareek/15418-Final-Project/maps/tests/size/Large.txt
Output file: /jet/home/ppareek/15418-Final-Project/paths/tests/size/Large_2_20000.txt
Start: 0,0
Goal: 1999,1999
Number of samples: 20000
Number of threads: 2
Loading map from file: /jet/home/ppareek/15418-Final-Project/maps/tests/size/Large.txt
Created Planner
Using Boost 1.66.0
Planning
Sampling 20000 points
Map width: 2000
Map height: 2000
Generation time: 3.43381e+06ns
Connection time: 5.94617e+08ns
Starting A*
All threads exited
No Path Found
No path found. Planning Failed.
Query failed
Time taken: 0.688134 seconds
Path Nodes: 0
Path Distance: 0
Destroyed Planner
Testing 4 Threads and 20,000 samples
Input file: /jet/home/ppareek/15418-Final-Project/maps/tests/size/Large.txt
Output file: /jet/home/ppareek/15418-Final-Project/paths/tests/size/Large_4_20000.txt
Start: 0,0
Goal: 1999,1999
Number of samples: 20000
Number of threads: 4
Loading map from file: /jet/home/ppareek/15418-Final-Project/maps/tests/size/Large.txt
Created Planner
Using Boost 1.66.0
Planning
Sampling 20000 points
Map width: 2000
Map height: 2000
Generation time: 3.2414e+06ns
Connection time: 3.32352e+08ns
Starting A*
All threads exited
No Path Found
No path found. Planning Failed.
Query failed
Time taken: 0.335786 seconds
Path Nodes: 0
Path Distance: 0
Destroyed Planner
Testing 8 Threads and 20,000 samples
Input file: /jet/home/ppareek/15418-Final-Project/maps/tests/size/Large.txt
Output file: /jet/home/ppareek/15418-Final-Project/paths/tests/size/Large_8_20000.txt
Start: 0,0
Goal: 1999,1999
Number of samples: 20000
Number of threads: 8
Loading map from file: /jet/home/ppareek/15418-Final-Project/maps/tests/size/Large.txt
Created Planner
Using Boost 1.66.0
Planning
Sampling 20000 points
Map width: 2000
Map height: 2000
Generation time: 3.35041e+06ns
Connection time: 2.28142e+08ns
Starting A*
All threads exited
No Path Found
No path found. Planning Failed.
Query failed
Time taken: 0.231669 seconds
Path Nodes: 0
Path Distance: 0
Destroyed Planner
Testing 16 Threads and 20,000 samples
Input file: /jet/home/ppareek/15418-Final-Project/maps/tests/size/Large.txt
Output file: /jet/home/ppareek/15418-Final-Project/paths/tests/size/Large_16_20000.txt
Start: 0,0
Goal: 1999,1999
Number of samples: 20000
Number of threads: 16
Loading map from file: /jet/home/ppareek/15418-Final-Project/maps/tests/size/Large.txt
Created Planner
Using Boost 1.66.0
Planning
Sampling 20000 points
Map width: 2000
Map height: 2000
Generation time: 3.14312e+06ns
Connection time: 2.44885e+08ns
Starting A*
All threads exited
No Path Found
No path found. Planning Failed.
Query failed
Time taken: 0.248272 seconds
Path Nodes: 0
Path Distance: 0
Destroyed Planner
Testing 32 Threads and 20,000 samples
Input file: /jet/home/ppareek/15418-Final-Project/maps/tests/size/Large.txt
Output file: /jet/home/ppareek/15418-Final-Project/paths/tests/size/Large_32_20000.txt
Start: 0,0
Goal: 1999,1999
Number of samples: 20000
Number of threads: 32
Loading map from file: /jet/home/ppareek/15418-Final-Project/maps/tests/size/Large.txt
Created Planner
Using Boost 1.66.0
Planning
Sampling 20000 points
Map width: 2000
Map height: 2000
Generation time: 3.68811e+06ns
Connection time: 1.88515e+08ns
Starting A*
All threads exited
No Path Found
No path found. Planning Failed.
Query failed
Time taken: 0.234415 seconds
Path Nodes: 0
Path Distance: 0
Destroyed Planner
Testing 64 Threads and 20,000 samples
Input file: /jet/home/ppareek/15418-Final-Project/maps/tests/size/Large.txt
Output file: /jet/home/ppareek/15418-Final-Project/paths/tests/size/Large_64_20000.txt
Start: 0,0
Goal: 1999,1999
Number of samples: 20000
Number of threads: 64
Loading map from file: /jet/home/ppareek/15418-Final-Project/maps/tests/size/Large.txt
Created Planner
Using Boost 1.66.0
Planning
Sampling 20000 points
Map width: 2000
Map height: 2000
Generation time: 3.75332e+06ns
Connection time: 2.11666e+08ns
Starting A*
All threads exited
No Path Found
No path found. Planning Failed.
Query failed
Time taken: 0.268201 seconds
Path Nodes: 0
Path Distance: 0
Destroyed Planner
Testing 128 Threads and 20,000 samples
Input file: /jet/home/ppareek/15418-Final-Project/maps/tests/size/Large.txt
Output file: /jet/home/ppareek/15418-Final-Project/paths/tests/size/Large_128_20000.txt
Start: 0,0
Goal: 1999,1999
Number of samples: 20000
Number of threads: 128
Loading map from file: /jet/home/ppareek/15418-Final-Project/maps/tests/size/Large.txt
Created Planner
Using Boost 1.66.0
Planning
Sampling 20000 points
Map width: 2000
Map height: 2000
Generation time: 3.72558e+06ns
Connection time: 2.32124e+08ns
Starting A*
All threads exited
No Path Found
No path found. Planning Failed.
Query failed
Time taken: 0.665225 seconds
Path Nodes: 0
Path Distance: 0
Destroyed Planner
--------------------------------------------------------------------------------
Testing 1 Threads and 40,000 samples
Input file: /jet/home/ppareek/15418-Final-Project/maps/tests/size/Large.txt
Output file: /jet/home/ppareek/15418-Final-Project/paths/tests/size/Large_1_40000.txt
Start: 0,0
Goal: 1999,1999
Number of samples: 40000
Number of threads: 1
Loading map from file: /jet/home/ppareek/15418-Final-Project/maps/tests/size/Large.txt
Created Planner
Using Boost 1.66.0
Planning
Sampling 40000 points
Map width: 2000
Map height: 2000
Generation time: 8.17946e+06ns
Connection time: 4.18138e+09ns
Starting A*
40001
We have Reached the Goal!!!
All threads exited
Path Found
Query time: 1.3451e+08ns
Time taken: 4.32416 seconds
Path Nodes: 4241
Path Distance: 4020
Destroyed Planner
Testing 2 Threads and 40,000 samples
Input file: /jet/home/ppareek/15418-Final-Project/maps/tests/size/Large.txt
Output file: /jet/home/ppareek/15418-Final-Project/paths/tests/size/Large_2_40000.txt
Start: 0,0
Goal: 1999,1999
Number of samples: 40000
Number of threads: 2
Loading map from file: /jet/home/ppareek/15418-Final-Project/maps/tests/size/Large.txt
Created Planner
Using Boost 1.66.0
Planning
Sampling 40000 points
Map width: 2000
Map height: 2000
Generation time: 6.32213e+06ns
Connection time: 2.37413e+09ns
Starting A*
40001
We have Reached the Goal!!!
All threads exited
Path Found
Query time: 3.77058e+08ns
Time taken: 2.75762 seconds
Path Nodes: 4397
Path Distance: 4170
Destroyed Planner
Testing 4 Threads and 40,000 samples
Input file: /jet/home/ppareek/15418-Final-Project/maps/tests/size/Large.txt
Output file: /jet/home/ppareek/15418-Final-Project/paths/tests/size/Large_4_40000.txt
Start: 0,0
Goal: 1999,1999
Number of samples: 40000
Number of threads: 4
Loading map from file: /jet/home/ppareek/15418-Final-Project/maps/tests/size/Large.txt
Created Planner
Using Boost 1.66.0
Planning
Sampling 40000 points
Map width: 2000
Map height: 2000
Generation time: 6.13504e+06ns
Connection time: 1.36188e+09ns
Starting A*
40001
We have Reached the Goal!!!
All threads exited
Path Found
Query time: 2.93216e+08ns
Time taken: 1.66133 seconds
Path Nodes: 4261
Path Distance: 4042
Destroyed Planner
Testing 8 Threads and 40,000 samples
Input file: /jet/home/ppareek/15418-Final-Project/maps/tests/size/Large.txt
Output file: /jet/home/ppareek/15418-Final-Project/paths/tests/size/Large_8_40000.txt
Start: 0,0
Goal: 1999,1999
Number of samples: 40000
Number of threads: 8
Loading map from file: /jet/home/ppareek/15418-Final-Project/maps/tests/size/Large.txt
Created Planner
Using Boost 1.66.0
Planning
Sampling 40000 points
Map width: 2000
Map height: 2000
Generation time: 6.18468e+06ns
Connection time: 8.88534e+08ns
Starting A*
40001
We have Reached the Goal!!!
All threads exited
Path Found
Query time: 2.33177e+08ns
Time taken: 1.12799 seconds
Path Nodes: 4277
Path Distance: 4056
Destroyed Planner
Testing 16 Threads and 40,000 samples
Input file: /jet/home/ppareek/15418-Final-Project/maps/tests/size/Large.txt
Output file: /jet/home/ppareek/15418-Final-Project/paths/tests/size/Large_16_40000.txt
Start: 0,0
Goal: 1999,1999
Number of samples: 40000
Number of threads: 16
Loading map from file: /jet/home/ppareek/15418-Final-Project/maps/tests/size/Large.txt
Created Planner
Using Boost 1.66.0
Planning
Sampling 40000 points
Map width: 2000
Map height: 2000
Generation time: 6.06989e+06ns
Connection time: 8.47742e+08ns
Starting A*
40001
We have Reached the Goal!!!
All threads exited
Path Found
Query time: 1.61572e+08ns
Time taken: 1.01547 seconds
Path Nodes: 4283
Path Distance: 4060
Destroyed Planner
Testing 32 Threads and 40,000 samples
Input file: /jet/home/ppareek/15418-Final-Project/maps/tests/size/Large.txt
Output file: /jet/home/ppareek/15418-Final-Project/paths/tests/size/Large_32_40000.txt
Start: 0,0
Goal: 1999,1999
Number of samples: 40000
Number of threads: 32
Loading map from file: /jet/home/ppareek/15418-Final-Project/maps/tests/size/Large.txt
Created Planner
Using Boost 1.66.0
Planning
Sampling 40000 points
Map width: 2000
Map height: 2000
Generation time: 6.06454e+06ns
Connection time: 7.30545e+08ns
Starting A*
40001
We have Reached the Goal!!!
All threads exited
Path Found
Query time: 1.07567e+08ns
Time taken: 0.844264 seconds
Path Nodes: 4297
Path Distance: 4078
Destroyed Planner
Testing 64 Threads and 40,000 samples
Input file: /jet/home/ppareek/15418-Final-Project/maps/tests/size/Large.txt
Output file: /jet/home/ppareek/15418-Final-Project/paths/tests/size/Large_64_40000.txt
Start: 0,0
Goal: 1999,1999
Number of samples: 40000
Number of threads: 64
Loading map from file: /jet/home/ppareek/15418-Final-Project/maps/tests/size/Large.txt
Created Planner
Using Boost 1.66.0
Planning
Sampling 40000 points
Map width: 2000
Map height: 2000
Generation time: 7.73915e+06ns
Connection time: 9.80929e+08ns
Starting A*
40001
We have Reached the Goal!!!
All threads exited
Path Found
Query time: 1.12731e+08ns
Time taken: 1.10152 seconds
Path Nodes: 4516
Path Distance: 4282
Destroyed Planner
Testing 128 Threads and 40,000 samples
Input file: /jet/home/ppareek/15418-Final-Project/maps/tests/size/Large.txt
Output file: /jet/home/ppareek/15418-Final-Project/paths/tests/size/Large_128_40000.txt
Start: 0,0
Goal: 1999,1999
Number of samples: 40000
Number of threads: 128
Loading map from file: /jet/home/ppareek/15418-Final-Project/maps/tests/size/Large.txt
Created Planner
Using Boost 1.66.0
Planning
Sampling 40000 points
Map width: 2000
Map height: 2000
Generation time: 6.34903e+06ns
Connection time: 9.13895e+08ns
Starting A*
40001
We have Reached the Goal!!!
All threads exited
Path Found
Query time: 3.12725e+08ns
Time taken: 1.23307 seconds
Path Nodes: 4545
Path Distance: 4312
Destroyed Planner
--------------------------------------------------------------------------------
Testing 1 Threads and 80,000 samples
Input file: /jet/home/ppareek/15418-Final-Project/maps/tests/size/Large.txt
Output file: /jet/home/ppareek/15418-Final-Project/paths/tests/size/Large_1_80000.txt
Start: 0,0
Goal: 1999,1999
Number of samples: 80000
Number of threads: 1
Loading map from file: /jet/home/ppareek/15418-Final-Project/maps/tests/size/Large.txt
Created Planner
Using Boost 1.66.0
Planning
Sampling 80000 points
Map width: 2000
Map height: 2000
Generation time: 1.5143e+07ns
Connection time: 1.65332e+10ns
Starting A*
80001
We have Reached the Goal!!!
All threads exited
Path Found
Query time: 1.76254e+08ns
Time taken: 16.7247 seconds
Path Nodes: 4230
Path Distance: 3998
Destroyed Planner
Testing 2 Threads and 80,000 samples
Input file: /jet/home/ppareek/15418-Final-Project/maps/tests/size/Large.txt
Output file: /jet/home/ppareek/15418-Final-Project/paths/tests/size/Large_2_80000.txt
Start: 0,0
Goal: 1999,1999
Number of samples: 80000
Number of threads: 2
Loading map from file: /jet/home/ppareek/15418-Final-Project/maps/tests/size/Large.txt
Created Planner
Using Boost 1.66.0
Planning
Sampling 80000 points
Map width: 2000
Map height: 2000
Generation time: 1.19587e+07ns
Connection time: 9.22937e+09ns
Starting A*
80001
We have Reached the Goal!!!
All threads exited
Path Found
Query time: 1.31493e+09ns
Time taken: 10.5564 seconds
Path Nodes: 4225
Path Distance: 4008
Destroyed Planner
Testing 4 Threads and 80,000 samples
Input file: /jet/home/ppareek/15418-Final-Project/maps/tests/size/Large.txt
Output file: /jet/home/ppareek/15418-Final-Project/paths/tests/size/Large_4_80000.txt
Start: 0,0
Goal: 1999,1999
Number of samples: 80000
Number of threads: 4
Loading map from file: /jet/home/ppareek/15418-Final-Project/maps/tests/size/Large.txt
Created Planner
Using Boost 1.66.0
Planning
Sampling 80000 points
Map width: 2000
Map height: 2000
Generation time: 1.21487e+07ns
Connection time: 5.97278e+09ns
Starting A*
80001
We have Reached the Goal!!!
All threads exited
Path Found
Query time: 2.71422e+09ns
Time taken: 8.69932 seconds
Path Nodes: 4213
Path Distance: 4002
Destroyed Planner
Testing 8 Threads and 80,000 samples
Input file: /jet/home/ppareek/15418-Final-Project/maps/tests/size/Large.txt
Output file: /jet/home/ppareek/15418-Final-Project/paths/tests/size/Large_8_80000.txt
Start: 0,0
Goal: 1999,1999
Number of samples: 80000
Number of threads: 8
Loading map from file: /jet/home/ppareek/15418-Final-Project/maps/tests/size/Large.txt
Created Planner
Using Boost 1.66.0
Planning
Sampling 80000 points
Map width: 2000
Map height: 2000
Generation time: 1.31905e+07ns
Connection time: 3.87975e+09ns
Starting A*
80001
We have Reached the Goal!!!
All threads exited
Path Found
Query time: 1.45709e+09ns
Time taken: 5.35016 seconds
Path Nodes: 4219
Path Distance: 3998
Destroyed Planner
Testing 16 Threads and 80,000 samples
Input file: /jet/home/ppareek/15418-Final-Project/maps/tests/size/Large.txt
Output file: /jet/home/ppareek/15418-Final-Project/paths/tests/size/Large_16_80000.txt
Start: 0,0
Goal: 1999,1999
Number of samples: 80000
Number of threads: 16
Loading map from file: /jet/home/ppareek/15418-Final-Project/maps/tests/size/Large.txt
Created Planner
Using Boost 1.66.0
Planning
Sampling 80000 points
Map width: 2000
Map height: 2000
Generation time: 1.13295e+07ns
Connection time: 3.67431e+09ns
Starting A*
80001
We have Reached the Goal!!!
All threads exited
Path Found
Query time: 1.0661e+09ns
Time taken: 4.75187 seconds
Path Nodes: 4228
Path Distance: 4010
Destroyed Planner
Testing 32 Threads and 80,000 samples
Input file: /jet/home/ppareek/15418-Final-Project/maps/tests/size/Large.txt
Output file: /jet/home/ppareek/15418-Final-Project/paths/tests/size/Large_32_80000.txt
Start: 0,0
Goal: 1999,1999
Number of samples: 80000
Number of threads: 32
Loading map from file: /jet/home/ppareek/15418-Final-Project/maps/tests/size/Large.txt
Created Planner
Using Boost 1.66.0
Planning
Sampling 80000 points
Map width: 2000
Map height: 2000
Generation time: 1.24421e+07ns
Connection time: 3.8578e+09ns
Starting A*
80001
We have Reached the Goal!!!
All threads exited
Path Found
Query time: 6.6643e+08ns
Time taken: 4.53681 seconds
Path Nodes: 4222
Path Distance: 4008
Destroyed Planner
Testing 64 Threads and 80,000 samples
Input file: /jet/home/ppareek/15418-Final-Project/maps/tests/size/Large.txt
Output file: /jet/home/ppareek/15418-Final-Project/paths/tests/size/Large_64_80000.txt
Start: 0,0
Goal: 1999,1999
Number of samples: 80000
Number of threads: 64
Loading map from file: /jet/home/ppareek/15418-Final-Project/maps/tests/size/Large.txt
Created Planner
Using Boost 1.66.0
Planning
Sampling 80000 points
Map width: 2000
Map height: 2000
Generation time: 1.1978e+07ns
Connection time: 3.82169e+09ns
Starting A*
80001
We have Reached the Goal!!!
All threads exited
Path Found
Query time: 5.14209e+08ns
Time taken: 4.34801 seconds
Path Nodes: 4217
Path Distance: 4000
Destroyed Planner
Testing 128 Threads and 80,000 samples
Input file: /jet/home/ppareek/15418-Final-Project/maps/tests/size/Large.txt
Output file: /jet/home/ppareek/15418-Final-Project/paths/tests/size/Large_128_80000.txt
Start: 0,0
Goal: 1999,1999
Number of samples: 80000
Number of threads: 128
Loading map from file: /jet/home/ppareek/15418-Final-Project/maps/tests/size/Large.txt
Created Planner
Using Boost 1.66.0
Planning
Sampling 80000 points
Map width: 2000
Map height: 2000
Generation time: 1.25968e+07ns
Connection time: 4.09894e+09ns
Starting A*
80001
We have Reached the Goal!!!
All threads exited
Path Found
Query time: 5.7192e+08ns
Time taken: 4.68403 seconds
Path Nodes: 4215
Path Distance: 3998
Destroyed Planner
--------------------------------------------------------------------------------
Done.
Testing /jet/home/ppareek/15418-Final-Project/scripts/test_scripts/test_medium_density.sh
----------------------------------- Testing Medium_Density -----------------------------------
Testing 1 Thread and 5,000 samples
Input file: /jet/home/ppareek/15418-Final-Project/maps/tests/density/Medium_Density.txt
Output file: /jet/home/ppareek/15418-Final-Project/paths/tests/density/Medium_Density_1_5000.txt
Start: 0,0
Goal: 999,999
Number of samples: 5000
Number of threads: 1
Loading map from file: /jet/home/ppareek/15418-Final-Project/maps/tests/density/Medium_Density.txt
Created Planner
Using Boost 1.66.0
Planning
Sampling 5000 points
Map width: 1000
Map height: 1000
Generation time: 477728ns
Connection time: 6.87147e+07ns
Starting A*
All threads exited
No Path Found
No path found. Planning Failed.
Query failed
Time taken: 0.0799841 seconds
Path Nodes: 0
Path Distance: 0
Destroyed Planner
Testing 2 Threads and 5,000 samples
Input file: /jet/home/ppareek/15418-Final-Project/maps/tests/density/Medium_Density.txt
Output file: /jet/home/ppareek/15418-Final-Project/paths/tests/density/Medium_Density_2_5000.txt
Start: 0,0
Goal: 999,999
Number of samples: 5000
Number of threads: 2
Loading map from file: /jet/home/ppareek/15418-Final-Project/maps/tests/density/Medium_Density.txt
Created Planner
Using Boost 1.66.0
Planning
Sampling 5000 points
Map width: 1000
Map height: 1000
Generation time: 514797ns
Connection time: 5.81064e+07ns
Starting A*
All threads exited
No Path Found
No path found. Planning Failed.
Query failed
Time taken: 0.0763024 seconds
Path Nodes: 0
Path Distance: 0
Destroyed Planner
Testing 4 Threads and 5,000 samples
Input file: /jet/home/ppareek/15418-Final-Project/maps/tests/density/Medium_Density.txt
Output file: /jet/home/ppareek/15418-Final-Project/paths/tests/density/Medium_Density_4_5000.txt
Start: 0,0
Goal: 999,999
Number of samples: 5000
Number of threads: 4
Loading map from file: /jet/home/ppareek/15418-Final-Project/maps/tests/density/Medium_Density.txt
Created Planner
Using Boost 1.66.0
Planning
Sampling 5000 points
Map width: 1000
Map height: 1000
Generation time: 518264ns
Connection time: 4.09358e+07ns
Starting A*
All threads exited
No Path Found
No path found. Planning Failed.
Query failed
Time taken: 0.0679586 seconds
Path Nodes: 0
Path Distance: 0
Destroyed Planner
Testing 8 Threads and 5,000 samples
Input file: /jet/home/ppareek/15418-Final-Project/maps/tests/density/Medium_Density.txt
Output file: /jet/home/ppareek/15418-Final-Project/paths/tests/density/Medium_Density_8_5000.txt
Start: 0,0
Goal: 999,999
Number of samples: 5000
Number of threads: 8
Loading map from file: /jet/home/ppareek/15418-Final-Project/maps/tests/density/Medium_Density.txt
Created Planner
Using Boost 1.66.0
Planning
Sampling 5000 points
Map width: 1000
Map height: 1000
Generation time: 509617ns
Connection time: 4.25715e+07ns
Starting A*
All threads exited
No Path Found
No path found. Planning Failed.
Query failed
Time taken: 0.0644088 seconds
Path Nodes: 0
Path Distance: 0
Destroyed Planner
Testing 16 Threads and 5,000 samples
Input file: /jet/home/ppareek/15418-Final-Project/maps/tests/density/Medium_Density.txt
Output file: /jet/home/ppareek/15418-Final-Project/paths/tests/density/Medium_Density_16_5000.txt
Start: 0,0
Goal: 999,999
Number of samples: 5000
Number of threads: 16
Loading map from file: /jet/home/ppareek/15418-Final-Project/maps/tests/density/Medium_Density.txt
Created Planner
Using Boost 1.66.0
Planning
Sampling 5000 points
Map width: 1000
Map height: 1000
Generation time: 496463ns
Connection time: 4.54395e+07ns
Starting A*
All threads exited
No Path Found
No path found. Planning Failed.
Query failed
Time taken: 0.061574 seconds
Path Nodes: 0
Path Distance: 0
Destroyed Planner
Testing 32 Threads and 5,000 samples
Input file: /jet/home/ppareek/15418-Final-Project/maps/tests/density/Medium_Density.txt
Output file: /jet/home/ppareek/15418-Final-Project/paths/tests/density/Medium_Density_32_5000.txt
Start: 0,0
Goal: 999,999
Number of samples: 5000
Number of threads: 32
Loading map from file: /jet/home/ppareek/15418-Final-Project/maps/tests/density/Medium_Density.txt
Created Planner
Using Boost 1.66.0
Planning
Sampling 5000 points
Map width: 1000
Map height: 1000
Generation time: 489220ns
Connection time: 3.85531e+07ns
Starting A*
All threads exited
No Path Found
No path found. Planning Failed.
Query failed
Time taken: 0.0490118 seconds
Path Nodes: 0
Path Distance: 0
Destroyed Planner
Testing 64 Threads and 5,000 samples
Input file: /jet/home/ppareek/15418-Final-Project/maps/tests/density/Medium_Density.txt
Output file: /jet/home/ppareek/15418-Final-Project/paths/tests/density/Medium_Density_64_5000.txt
Start: 0,0
Goal: 999,999
Number of samples: 5000
Number of threads: 64
Loading map from file: /jet/home/ppareek/15418-Final-Project/maps/tests/density/Medium_Density.txt
Created Planner
Using Boost 1.66.0
Planning
Sampling 5000 points
Map width: 1000
Map height: 1000
Generation time: 506231ns
Connection time: 5.26221e+07ns
Starting A*
All threads exited
No Path Found
No path found. Planning Failed.
Query failed
Time taken: 0.0636833 seconds
Path Nodes: 0
Path Distance: 0
Destroyed Planner
Testing 128 Threads and 5,000 samples
Input file: /jet/home/ppareek/15418-Final-Project/maps/tests/density/Medium_Density.txt
Output file: /jet/home/ppareek/15418-Final-Project/paths/tests/density/Medium_Density_128_5000.txt
Start: 0,0
Goal: 999,999
Number of samples: 5000
Number of threads: 128
Loading map from file: /jet/home/ppareek/15418-Final-Project/maps/tests/density/Medium_Density.txt
Created Planner
Using Boost 1.66.0
Planning
Sampling 5000 points
Map width: 1000
Map height: 1000
Generation time: 541939ns
Connection time: 8.74686e+07ns
Starting A*
All threads exited
No Path Found
No path found. Planning Failed.
Query failed
Time taken: 0.410544 seconds
Path Nodes: 0
Path Distance: 0
Destroyed Planner
--------------------------------------------------------------------------------
Testing 1 Threads and 10,000 samples
Input file: /jet/home/ppareek/15418-Final-Project/maps/tests/density/Medium_Density.txt
Output file: /jet/home/ppareek/15418-Final-Project/paths/tests/density/Medium_Density_1_10000.txt
Start: 0,0
Goal: 999,999
Number of samples: 10000
Number of threads: 1
Loading map from file: /jet/home/ppareek/15418-Final-Project/maps/tests/density/Medium_Density.txt
Created Planner
Using Boost 1.66.0
Planning
Sampling 10000 points
Map width: 1000
Map height: 1000
Generation time: 1.16976e+06ns
Connection time: 2.7618e+08ns
Starting A*
10001
We have Reached the Goal!!!
All threads exited
Path Found
Query time: 4.4184e+07ns
Time taken: 0.321595 seconds
Path Nodes: 2130
Path Distance: 2016
Destroyed Planner
Testing 2 Threads and 10,000 samples
Input file: /jet/home/ppareek/15418-Final-Project/maps/tests/density/Medium_Density.txt
Output file: /jet/home/ppareek/15418-Final-Project/paths/tests/density/Medium_Density_2_10000.txt
Start: 0,0
Goal: 999,999
Number of samples: 10000
Number of threads: 2
Loading map from file: /jet/home/ppareek/15418-Final-Project/maps/tests/density/Medium_Density.txt
Created Planner
Using Boost 1.66.0
Planning
Sampling 10000 points
Map width: 1000
Map height: 1000
Generation time: 1.02242e+06ns
Connection time: 2.16675e+08ns
Starting A*
10001
We have Reached the Goal!!!
All threads exited
Path Found
Query time: 7.50308e+07ns
Time taken: 0.292792 seconds
Path Nodes: 2254
Path Distance: 2138
Destroyed Planner
Testing 4 Threads and 10,000 samples
Input file: /jet/home/ppareek/15418-Final-Project/maps/tests/density/Medium_Density.txt
Output file: /jet/home/ppareek/15418-Final-Project/paths/tests/density/Medium_Density_4_10000.txt
Start: 0,0
Goal: 999,999
Number of samples: 10000
Number of threads: 4
Loading map from file: /jet/home/ppareek/15418-Final-Project/maps/tests/density/Medium_Density.txt
Created Planner
Using Boost 1.66.0
Planning
Sampling 10000 points
Map width: 1000
Map height: 1000
Generation time: 991554ns
Connection time: 1.72924e+08ns
Starting A*
10001
We have Reached the Goal!!!
All threads exited
Path Found
Query time: 1.12989e+08ns
Time taken: 0.286958 seconds
Path Nodes: 2209
Path Distance: 2096
Destroyed Planner
Testing 8 Threads and 10,000 samples
Input file: /jet/home/ppareek/15418-Final-Project/maps/tests/density/Medium_Density.txt
Output file: /jet/home/ppareek/15418-Final-Project/paths/tests/density/Medium_Density_8_10000.txt
Start: 0,0
Goal: 999,999
Number of samples: 10000
Number of threads: 8
Loading map from file: /jet/home/ppareek/15418-Final-Project/maps/tests/density/Medium_Density.txt
Created Planner
Using Boost 1.66.0
Planning
Sampling 10000 points
Map width: 1000
Map height: 1000
Generation time: 986164ns
Connection time: 1.60389e+08ns
Starting A*
10001
We have Reached the Goal!!!
All threads exited
Path Found
Query time: 8.47715e+07ns
Time taken: 0.246193 seconds
Path Nodes: 2170
Path Distance: 2050
Destroyed Planner
Testing 16 Threads and 10,000 samples
Input file: /jet/home/ppareek/15418-Final-Project/maps/tests/density/Medium_Density.txt
Output file: /jet/home/ppareek/15418-Final-Project/paths/tests/density/Medium_Density_16_10000.txt
Start: 0,0
Goal: 999,999
Number of samples: 10000
Number of threads: 16
Loading map from file: /jet/home/ppareek/15418-Final-Project/maps/tests/density/Medium_Density.txt
Created Planner
Using Boost 1.66.0
Planning
Sampling 10000 points
Map width: 1000
Map height: 1000
Generation time: 972247ns
Connection time: 1.89272e+08ns
Starting A*
10001
We have Reached the Goal!!!
All threads exited
Path Found
Query time: 5.40463e+07ns
Time taken: 0.244342 seconds
Path Nodes: 2142
Path Distance: 2032
Destroyed Planner
Testing 32 Threads and 10,000 samples
Input file: /jet/home/ppareek/15418-Final-Project/maps/tests/density/Medium_Density.txt
Output file: /jet/home/ppareek/15418-Final-Project/paths/tests/density/Medium_Density_32_10000.txt
Start: 0,0
Goal: 999,999
Number of samples: 10000
Number of threads: 32
Loading map from file: /jet/home/ppareek/15418-Final-Project/maps/tests/density/Medium_Density.txt
Created Planner
Using Boost 1.66.0
Planning
Sampling 10000 points
Map width: 1000
Map height: 1000
Generation time: 917745ns
Connection time: 1.57835e+08ns
Starting A*
10001
We have Reached the Goal!!!
All threads exited
Path Found
Query time: 3.0848e+07ns
Time taken: 0.189642 seconds
Path Nodes: 2251
Path Distance: 2132
Destroyed Planner
Testing 64 Threads and 10,000 samples
Input file: /jet/home/ppareek/15418-Final-Project/maps/tests/density/Medium_Density.txt
Output file: /jet/home/ppareek/15418-Final-Project/paths/tests/density/Medium_Density_64_10000.txt
Start: 0,0
Goal: 999,999
Number of samples: 10000
Number of threads: 64
Loading map from file: /jet/home/ppareek/15418-Final-Project/maps/tests/density/Medium_Density.txt
Created Planner
Using Boost 1.66.0
Planning
Sampling 10000 points
Map width: 1000
Map height: 1000
Generation time: 968280ns
Connection time: 2.17588e+08ns
Starting A*
10001
We have Reached the Goal!!!
All threads exited
Path Found
Query time: 6.41939e+07ns
Time taken: 0.282822 seconds
Path Nodes: 2269
Path Distance: 2154
Destroyed Planner
Testing 128 Threads and 10,000 samples
Input file: /jet/home/ppareek/15418-Final-Project/maps/tests/density/Medium_Density.txt
Output file: /jet/home/ppareek/15418-Final-Project/paths/tests/density/Medium_Density_128_10000.txt
Start: 0,0
Goal: 999,999
Number of samples: 10000
Number of threads: 128
Loading map from file: /jet/home/ppareek/15418-Final-Project/maps/tests/density/Medium_Density.txt
Created Planner
Using Boost 1.66.0
Planning
Sampling 10000 points
Map width: 1000
Map height: 1000
Generation time: 1.00085e+06ns
Connection time: 2.45784e+08ns
Starting A*
10001
We have Reached the Goal!!!
All threads exited
Path Found
Query time: 1.75918e+08ns
Time taken: 0.422842 seconds
Path Nodes: 2249
Path Distance: 2136
Destroyed Planner
--------------------------------------------------------------------------------
Testing 1 Threads and 20,000 samples
Input file: /jet/home/ppareek/15418-Final-Project/maps/tests/density/Medium_Density.txt
Output file: /jet/home/ppareek/15418-Final-Project/paths/tests/density/Medium_Density_1_20000.txt
Start: 0,0
Goal: 999,999
Number of samples: 20000
Number of threads: 1
Loading map from file: /jet/home/ppareek/15418-Final-Project/maps/tests/density/Medium_Density.txt
Created Planner
Using Boost 1.66.0
Planning
Sampling 20000 points
Map width: 1000
Map height: 1000
Generation time: 2.13205e+06ns
Connection time: 1.13094e+09ns
Starting A*
20001
We have Reached the Goal!!!
All threads exited
Path Found
Query time: 9.61458e+07ns
Time taken: 1.22929 seconds
Path Nodes: 2111
Path Distance: 1998
Destroyed Planner
Testing 2 Threads and 20,000 samples
Input file: /jet/home/ppareek/15418-Final-Project/maps/tests/density/Medium_Density.txt
Output file: /jet/home/ppareek/15418-Final-Project/paths/tests/density/Medium_Density_2_20000.txt
Start: 0,0
Goal: 999,999
Number of samples: 20000
Number of threads: 2
Loading map from file: /jet/home/ppareek/15418-Final-Project/maps/tests/density/Medium_Density.txt
Created Planner
Using Boost 1.66.0
Planning
Sampling 20000 points
Map width: 1000
Map height: 1000
Generation time: 1.78314e+06ns
Connection time: 9.01296e+08ns
Starting A*
20001
We have Reached the Goal!!!
All threads exited
Path Found
Query time: 3.74935e+08ns
Time taken: 1.2781 seconds
Path Nodes: 2118
Path Distance: 2004
Destroyed Planner
Testing 4 Threads and 20,000 samples
Input file: /jet/home/ppareek/15418-Final-Project/maps/tests/density/Medium_Density.txt
Output file: /jet/home/ppareek/15418-Final-Project/paths/tests/density/Medium_Density_4_20000.txt
Start: 0,0
Goal: 999,999
Number of samples: 20000
Number of threads: 4
Loading map from file: /jet/home/ppareek/15418-Final-Project/maps/tests/density/Medium_Density.txt
Created Planner
Using Boost 1.66.0
Planning
Sampling 20000 points
Map width: 1000
Map height: 1000
Generation time: 1.80014e+06ns
Connection time: 6.48027e+08ns
Starting A*
20001
We have Reached the Goal!!!
All threads exited
Path Found
Query time: 4.41539e+08ns
Time taken: 1.09144 seconds
Path Nodes: 2113
Path Distance: 2004
Destroyed Planner
Testing 8 Threads and 20,000 samples
Input file: /jet/home/ppareek/15418-Final-Project/maps/tests/density/Medium_Density.txt
Output file: /jet/home/ppareek/15418-Final-Project/paths/tests/density/Medium_Density_8_20000.txt
Start: 0,0
Goal: 999,999
Number of samples: 20000
Number of threads: 8
Loading map from file: /jet/home/ppareek/15418-Final-Project/maps/tests/density/Medium_Density.txt
Created Planner
Using Boost 1.66.0
Planning
Sampling 20000 points
Map width: 1000
Map height: 1000
Generation time: 1.81271e+06ns
Connection time: 6.55554e+08ns
Starting A*
20001
We have Reached the Goal!!!
All threads exited
Path Found
Query time: 2.89127e+08ns
Time taken: 0.946573 seconds
Path Nodes: 2107
Path Distance: 1998
Destroyed Planner
Testing 16 Threads and 20,000 samples
Input file: /jet/home/ppareek/15418-Final-Project/maps/tests/density/Medium_Density.txt
Output file: /jet/home/ppareek/15418-Final-Project/paths/tests/density/Medium_Density_16_20000.txt
Start: 0,0
Goal: 999,999
Number of samples: 20000
Number of threads: 16
Loading map from file: /jet/home/ppareek/15418-Final-Project/maps/tests/density/Medium_Density.txt
Created Planner
Using Boost 1.66.0
Planning
Sampling 20000 points
Map width: 1000
Map height: 1000
Generation time: 1.82382e+06ns
Connection time: 7.09867e+08ns
Starting A*
20001
We have Reached the Goal!!!
All threads exited
Path Found
Query time: 2.04787e+08ns
Time taken: 0.916545 seconds
Path Nodes: 2117
Path Distance: 2008
Destroyed Planner
Testing 32 Threads and 20,000 samples
Input file: /jet/home/ppareek/15418-Final-Project/maps/tests/density/Medium_Density.txt
Output file: /jet/home/ppareek/15418-Final-Project/paths/tests/density/Medium_Density_32_20000.txt
Start: 0,0
Goal: 999,999
Number of samples: 20000
Number of threads: 32
Loading map from file: /jet/home/ppareek/15418-Final-Project/maps/tests/density/Medium_Density.txt
Created Planner
Using Boost 1.66.0
Planning
Sampling 20000 points
Map width: 1000
Map height: 1000
Generation time: 1.76628e+06ns
Connection time: 9.00605e+08ns
Starting A*
20001
We have Reached the Goal!!!
All threads exited
Path Found
Query time: 1.44705e+08ns
Time taken: 1.04714 seconds
Path Nodes: 2127
Path Distance: 2014
Destroyed Planner
Testing 64 Threads and 20,000 samples
Input file: /jet/home/ppareek/15418-Final-Project/maps/tests/density/Medium_Density.txt
Output file: /jet/home/ppareek/15418-Final-Project/paths/tests/density/Medium_Density_64_20000.txt
Start: 0,0
Goal: 999,999
Number of samples: 20000
Number of threads: 64
Loading map from file: /jet/home/ppareek/15418-Final-Project/maps/tests/density/Medium_Density.txt
Created Planner
Using Boost 1.66.0
Planning
Sampling 20000 points
Map width: 1000
Map height: 1000
Generation time: 1.9416e+06ns
Connection time: 7.50559e+08ns
Starting A*
20001
We have Reached the Goal!!!
All threads exited
Path Found
Query time: 1.04834e+08ns
Time taken: 0.85747 seconds
Path Nodes: 2124
Path Distance: 2016
Destroyed Planner
Testing 128 Threads and 20,000 samples
Input file: /jet/home/ppareek/15418-Final-Project/maps/tests/density/Medium_Density.txt
Output file: /jet/home/ppareek/15418-Final-Project/paths/tests/density/Medium_Density_128_20000.txt
Start: 0,0
Goal: 999,999
Number of samples: 20000
Number of threads: 128
Loading map from file: /jet/home/ppareek/15418-Final-Project/maps/tests/density/Medium_Density.txt
Created Planner
Using Boost 1.66.0
Planning
Sampling 20000 points
Map width: 1000
Map height: 1000
Generation time: 1.7957e+06ns
Connection time: 8.97778e+08ns
Starting A*
20001
We have Reached the Goal!!!
All threads exited
Path Found
Query time: 1.18148e+08ns
Time taken: 1.01787 seconds
Path Nodes: 2148
Path Distance: 2040
Destroyed Planner
--------------------------------------------------------------------------------
Done.
Testing /jet/home/ppareek/15418-Final-Project/scripts/test_scripts/test_medium.sh
----------------------------------- Testing Medium -----------------------------------
Testing 1 Thread and 5,000 samples
Input file: /jet/home/ppareek/15418-Final-Project/maps/tests/size/Medium.txt
Output file: /jet/home/ppareek/15418-Final-Project/paths/tests/size/Medium_1_5000.txt
Start: 0,0
Goal: 999,999
Number of samples: 5000
Number of threads: 1
Loading map from file: /jet/home/ppareek/15418-Final-Project/maps/tests/size/Medium.txt
Created Planner
Using Boost 1.66.0
Planning
Sampling 5000 points
Map width: 1000
Map height: 1000
Generation time: 518906ns
Connection time: 6.87151e+07ns
Starting A*
5001
We have Reached the Goal!!!
All threads exited
Path Found
Query time: 3.29482e+06ns
Time taken: 0.0725791 seconds
Path Nodes: 2539
Path Distance: 2400
Destroyed Planner
Testing 2 Threads and 5,000 samples
Input file: /jet/home/ppareek/15418-Final-Project/maps/tests/size/Medium.txt
Output file: /jet/home/ppareek/15418-Final-Project/paths/tests/size/Medium_2_5000.txt
Start: 0,0
Goal: 999,999
Number of samples: 5000
Number of threads: 2
Loading map from file: /jet/home/ppareek/15418-Final-Project/maps/tests/size/Medium.txt
Created Planner
Using Boost 1.66.0
Planning
Sampling 5000 points
Map width: 1000
Map height: 1000
Generation time: 535416ns
Connection time: 5.87359e+07ns
Starting A*
All threads exited
No Path Found
No path found. Planning Failed.
Query failed
Time taken: 0.0595437 seconds
Path Nodes: 0
Path Distance: 0
Destroyed Planner
Testing 4 Threads and 5,000 samples
Input file: /jet/home/ppareek/15418-Final-Project/maps/tests/size/Medium.txt
Output file: /jet/home/ppareek/15418-Final-Project/paths/tests/size/Medium_4_5000.txt
Start: 0,0
Goal: 999,999
Number of samples: 5000
Number of threads: 4
Loading map from file: /jet/home/ppareek/15418-Final-Project/maps/tests/size/Medium.txt
Created Planner
Using Boost 1.66.0
Planning
Sampling 5000 points
Map width: 1000
Map height: 1000
Generation time: 502564ns
Connection time: 4.42712e+07ns
Starting A*
All threads exited
No Path Found
No path found. Planning Failed.
Query failed
Time taken: 0.0452061 seconds
Path Nodes: 0
Path Distance: 0
Destroyed Planner
Testing 8 Threads and 5,000 samples
Input file: /jet/home/ppareek/15418-Final-Project/maps/tests/size/Medium.txt
Output file: /jet/home/ppareek/15418-Final-Project/paths/tests/size/Medium_8_5000.txt
Start: 0,0
Goal: 999,999
Number of samples: 5000
Number of threads: 8
Loading map from file: /jet/home/ppareek/15418-Final-Project/maps/tests/size/Medium.txt
Created Planner
Using Boost 1.66.0
Planning
Sampling 5000 points
Map width: 1000
Map height: 1000
Generation time: 509337ns
Connection time: 4.31358e+07ns
Starting A*
All threads exited
No Path Found
No path found. Planning Failed.
Query failed
Time taken: 0.0439876 seconds
Path Nodes: 0
Path Distance: 0
Destroyed Planner
Testing 16 Threads and 5,000 samples
Input file: /jet/home/ppareek/15418-Final-Project/maps/tests/size/Medium.txt
Output file: /jet/home/ppareek/15418-Final-Project/paths/tests/size/Medium_16_5000.txt
Start: 0,0
Goal: 999,999
Number of samples: 5000
Number of threads: 16
Loading map from file: /jet/home/ppareek/15418-Final-Project/maps/tests/size/Medium.txt
Created Planner
Using Boost 1.66.0
Planning
Sampling 5000 points
Map width: 1000
Map height: 1000
Generation time: 494359ns
Connection time: 4.70388e+07ns
Starting A*
All threads exited
No Path Found
No path found. Planning Failed.
Query failed
Time taken: 0.0480229 seconds
Path Nodes: 0
Path Distance: 0
Destroyed Planner
Testing 32 Threads and 5,000 samples
Input file: /jet/home/ppareek/15418-Final-Project/maps/tests/size/Medium.txt
Output file: /jet/home/ppareek/15418-Final-Project/paths/tests/size/Medium_32_5000.txt
Start: 0,0
Goal: 999,999
Number of samples: 5000
Number of threads: 32
Loading map from file: /jet/home/ppareek/15418-Final-Project/maps/tests/size/Medium.txt
Created Planner
Using Boost 1.66.0
Planning
Sampling 5000 points
Map width: 1000
Map height: 1000
Generation time: 503917ns
Connection time: 5.48074e+07ns
Starting A*
All threads exited
No Path Found
No path found. Planning Failed.
Query failed
Time taken: 0.0560514 seconds
Path Nodes: 0
Path Distance: 0
Destroyed Planner
Testing 64 Threads and 5,000 samples
Input file: /jet/home/ppareek/15418-Final-Project/maps/tests/size/Medium.txt
Output file: /jet/home/ppareek/15418-Final-Project/paths/tests/size/Medium_64_5000.txt
Start: 0,0
Goal: 999,999
Number of samples: 5000
Number of threads: 64
Loading map from file: /jet/home/ppareek/15418-Final-Project/maps/tests/size/Medium.txt
Created Planner
Using Boost 1.66.0
Planning
Sampling 5000 points
Map width: 1000
Map height: 1000
Generation time: 522482ns
Connection time: 6.21675e+07ns
Starting A*
All threads exited
No Path Found
No path found. Planning Failed.
Query failed
Time taken: 0.067831 seconds
Path Nodes: 0
Path Distance: 0
Destroyed Planner
Testing 128 Threads and 5,000 samples
Input file: /jet/home/ppareek/15418-Final-Project/maps/tests/size/Medium.txt
Output file: /jet/home/ppareek/15418-Final-Project/paths/tests/size/Medium_128_5000.txt
Start: 0,0
Goal: 999,999
Number of samples: 5000
Number of threads: 128
Loading map from file: /jet/home/ppareek/15418-Final-Project/maps/tests/size/Medium.txt
Created Planner
Using Boost 1.66.0
Planning
Sampling 5000 points
Map width: 1000
Map height: 1000
Generation time: 721917ns
Connection time: 6.3767e+07ns
Starting A*
All threads exited
No Path Found
No path found. Planning Failed.
Query failed
Time taken: 0.157413 seconds
Path Nodes: 0
Path Distance: 0
Destroyed Planner
--------------------------------------------------------------------------------
Testing 1 Threads and 10,000 samples
Input file: /jet/home/ppareek/15418-Final-Project/maps/tests/size/Medium.txt
Output file: /jet/home/ppareek/15418-Final-Project/paths/tests/size/Medium_1_10000.txt
Start: 0,0
Goal: 999,999
Number of samples: 10000
Number of threads: 1
Loading map from file: /jet/home/ppareek/15418-Final-Project/maps/tests/size/Medium.txt
Created Planner
Using Boost 1.66.0
Planning
Sampling 10000 points
Map width: 1000
Map height: 1000
Generation time: 1.00898e+06ns
Connection time: 2.76688e+08ns
Starting A*
10001
We have Reached the Goal!!!
All threads exited
Path Found
Query time: 3.85041e+07ns
Time taken: 0.31626 seconds
Path Nodes: 2125
Path Distance: 2012
Destroyed Planner
Testing 2 Threads and 10,000 samples
Input file: /jet/home/ppareek/15418-Final-Project/maps/tests/size/Medium.txt
Output file: /jet/home/ppareek/15418-Final-Project/paths/tests/size/Medium_2_10000.txt
Start: 0,0
Goal: 999,999
Number of samples: 10000
Number of threads: 2
Loading map from file: /jet/home/ppareek/15418-Final-Project/maps/tests/size/Medium.txt
Created Planner
Using Boost 1.66.0
Planning
Sampling 10000 points
Map width: 1000
Map height: 1000
Generation time: 951448ns
Connection time: 2.30538e+08ns
Starting A*
10001
We have Reached the Goal!!!
All threads exited
Path Found
Query time: 7.74048e+07ns
Time taken: 0.308954 seconds
Path Nodes: 2460
Path Distance: 2326
Destroyed Planner
Testing 4 Threads and 10,000 samples
Input file: /jet/home/ppareek/15418-Final-Project/maps/tests/size/Medium.txt
Output file: /jet/home/ppareek/15418-Final-Project/paths/tests/size/Medium_4_10000.txt
Start: 0,0
Goal: 999,999
Number of samples: 10000
Number of threads: 4
Loading map from file: /jet/home/ppareek/15418-Final-Project/maps/tests/size/Medium.txt
Created Planner
Using Boost 1.66.0
Planning
Sampling 10000 points
Map width: 1000
Map height: 1000
Generation time: 971947ns
Connection time: 1.72859e+08ns
Starting A*
10001
We have Reached the Goal!!!
All threads exited
Path Found
Query time: 7.26717e+07ns
Time taken: 0.24655 seconds
Path Nodes: 2156
Path Distance: 2040
Destroyed Planner
Testing 8 Threads and 10,000 samples
Input file: /jet/home/ppareek/15418-Final-Project/maps/tests/size/Medium.txt
Output file: /jet/home/ppareek/15418-Final-Project/paths/tests/size/Medium_8_10000.txt
Start: 0,0
Goal: 999,999
Number of samples: 10000
Number of threads: 8
Loading map from file: /jet/home/ppareek/15418-Final-Project/maps/tests/size/Medium.txt
Created Planner
Using Boost 1.66.0
Planning
Sampling 10000 points
Map width: 1000
Map height: 1000
Generation time: 942151ns
Connection time: 1.83683e+08ns
Starting A*
10001
We have Reached the Goal!!!
All threads exited
Path Found
Query time: 6.18242e+07ns
Time taken: 0.246488 seconds
Path Nodes: 2147
Path Distance: 2036
Destroyed Planner
Testing 16 Threads and 10,000 samples
Input file: /jet/home/ppareek/15418-Final-Project/maps/tests/size/Medium.txt
Output file: /jet/home/ppareek/15418-Final-Project/paths/tests/size/Medium_16_10000.txt
Start: 0,0
Goal: 999,999
Number of samples: 10000
Number of threads: 16
Loading map from file: /jet/home/ppareek/15418-Final-Project/maps/tests/size/Medium.txt
Created Planner
Using Boost 1.66.0
Planning
Sampling 10000 points
Map width: 1000
Map height: 1000
Generation time: 967819ns
Connection time: 1.87771e+08ns
Starting A*
10001
We have Reached the Goal!!!
All threads exited
Path Found
Query time: 3.8032e+07ns
Time taken: 0.226833 seconds
Path Nodes: 2154
Path Distance: 2044
Destroyed Planner
Testing 32 Threads and 10,000 samples
Input file: /jet/home/ppareek/15418-Final-Project/maps/tests/size/Medium.txt
Output file: /jet/home/ppareek/15418-Final-Project/paths/tests/size/Medium_32_10000.txt
Start: 0,0
Goal: 999,999
Number of samples: 10000
Number of threads: 32
Loading map from file: /jet/home/ppareek/15418-Final-Project/maps/tests/size/Medium.txt
Created Planner
Using Boost 1.66.0
Planning
Sampling 10000 points
Map width: 1000
Map height: 1000
Generation time: 962199ns
Connection time: 1.56325e+08ns
Starting A*
10001
We have Reached the Goal!!!
All threads exited
Path Found
Query time: 2.27001e+07ns
Time taken: 0.180036 seconds
Path Nodes: 2176
Path Distance: 2062
[...]
Using Boost 1.66.0
Planning
Sampling 5000 points
Map width: 500
Map height: 500
Generation time: 496733ns
Connection time: 1.57194e+08ns
Starting A*
5001
We have Reached the Goal!!!
All threads exited
Path Found
Query time: 4.20142e+07ns
Time taken: 0.199757 seconds
Path Nodes: 1059
Path Distance: 1002
Destroyed Planner
Testing 32 Threads and 5,000 samples
Input file: /jet/home/ppareek/15418-Final-Project/maps/tests/size/Small.txt
Output file: /jet/home/ppareek/15418-Final-Project/paths/tests/size/Small_32_5000.txt
Start: 0,0
Goal: 499,499
Number of samples: 5000
Number of threads: 32
Loading map from file: /jet/home/ppareek/15418-Final-Project/maps/tests/size/Small.txt
Created Planner
Using Boost 1.66.0
Planning
Sampling 5000 points
Map width: 500
Map height: 500
Generation time: 482176ns
Connection time: 1.31356e+08ns
Starting A*
5001
We have Reached the Goal!!!
All threads exited
Path Found
Query time: 2.99046e+07ns
Time taken: 0.161786 seconds
Path Nodes: 1065
Path Distance: 1010
Destroyed Planner
Testing 64 Threads and 5,000 samples
Input file: /jet/home/ppareek/15418-Final-Project/maps/tests/size/Small.txt
Output file: /jet/home/ppareek/15418-Final-Project/paths/tests/size/Small_64_5000.txt
Start: 0,0
Goal: 499,499
Number of samples: 5000
Number of threads: 64
Loading map from file: /jet/home/ppareek/15418-Final-Project/maps/tests/size/Small.txt
Created Planner
Using Boost 1.66.0
Planning
Sampling 5000 points
Map width: 500
Map height: 500
Generation time: 491303ns
Connection time: 1.56132e+08ns
Starting A*
5001
We have Reached the Goal!!!
All threads exited
Path Found
Query time: 4.57393e+07ns
Time taken: 0.20244 seconds
Path Nodes: 1060
Path Distance: 1006
Destroyed Planner
Testing 128 Threads and 5,000 samples
Input file: /jet/home/ppareek/15418-Final-Project/maps/tests/size/Small.txt
Output file: /jet/home/ppareek/15418-Final-Project/paths/tests/size/Small_128_5000.txt
Start: 0,0
Goal: 499,499
Number of samples: 5000
Number of threads: 128
Loading map from file: /jet/home/ppareek/15418-Final-Project/maps/tests/size/Small.txt
Created Planner
Using Boost 1.66.0
Planning
Sampling 5000 points
Map width: 500
Map height: 500
Generation time: 530978ns
Connection time: 2.22429e+08ns
Starting A*
5001
We have Reached the Goal!!!
All threads exited
Path Found
Query time: 8.01932e+07ns
Time taken: 0.303382 seconds
Path Nodes: 1059
Path Distance: 1006
Destroyed Planner
--------------------------------------------------------------------------------
Done.
Testing /jet/home/ppareek/15418-Final-Project/scripts/test_scripts/test_sparse.sh
----------------------------------- Testing Sparse -----------------------------------
Testing 1 Thread and 5,000 samples
Input file: /jet/home/ppareek/15418-Final-Project/maps/tests/density/Sparse.txt
Output file: /jet/home/ppareek/15418-Final-Project/paths/tests/density/Sparse_1_5000.txt
Start: 0,0
Goal: 999,999
Number of samples: 5000
Number of threads: 1
Loading map from file: /jet/home/ppareek/15418-Final-Project/maps/tests/density/Sparse.txt
Created Planner
Using Boost 1.66.0
Planning
Sampling 5000 points
Map width: 1000
Map height: 1000
Generation time: 502273ns
Connection time: 6.82253e+07ns
Starting A*
All threads exited
No Path Found
No path found. Planning Failed.
Query failed
Time taken: 0.0688969 seconds
Path Nodes: 0
Path Distance: 0
Destroyed Planner
Testing 2 Threads and 5,000 samples
Input file: /jet/home/ppareek/15418-Final-Project/maps/tests/density/Sparse.txt
Output file: /jet/home/ppareek/15418-Final-Project/paths/tests/density/Sparse_2_5000.txt
Start: 0,0
Goal: 999,999
Number of samples: 5000
Number of threads: 2
Loading map from file: /jet/home/ppareek/15418-Final-Project/maps/tests/density/Sparse.txt
Created Planner
Using Boost 1.66.0
Planning
Sampling 5000 points
Map width: 1000
Map height: 1000
Generation time: 458232ns
Connection time: 5.52798e+07ns
Starting A*
All threads exited
No Path Found
No path found. Planning Failed.
Query failed
Time taken: 0.0559881 seconds
Path Nodes: 0
Path Distance: 0
Destroyed Planner
Testing 4 Threads and 5,000 samples
Input file: /jet/home/ppareek/15418-Final-Project/maps/tests/density/Sparse.txt
Output file: /jet/home/ppareek/15418-Final-Project/paths/tests/density/Sparse_4_5000.txt
Start: 0,0
Goal: 999,999
Number of samples: 5000
Number of threads: 4
Loading map from file: /jet/home/ppareek/15418-Final-Project/maps/tests/density/Sparse.txt
Created Planner
Using Boost 1.66.0
Planning
Sampling 5000 points
Map width: 1000
Map height: 1000
Generation time: 438044ns
Connection time: 3.99804e+07ns
Starting A*
5001
We have Reached the Goal!!!
All threads exited
Path Found
Query time: 1.88769e+07ns
Time taken: 0.0593339 seconds
Path Nodes: 2417
Path Distance: 2290
Destroyed Planner
Testing 8 Threads and 5,000 samples
Input file: /jet/home/ppareek/15418-Final-Project/maps/tests/density/Sparse.txt
Output file: /jet/home/ppareek/15418-Final-Project/paths/tests/density/Sparse_8_5000.txt
Start: 0,0
Goal: 999,999
Number of samples: 5000
Number of threads: 8
Loading map from file: /jet/home/ppareek/15418-Final-Project/maps/tests/density/Sparse.txt
Created Planner
Using Boost 1.66.0
Planning
Sampling 5000 points
Map width: 1000
Map height: 1000
Generation time: 437563ns
Connection time: 4.14272e+07ns
Starting A*
5001
We have Reached the Goal!!!
All threads exited
Path Found
Query time: 1.06998e+07ns
Time taken: 0.0525927 seconds
Path Nodes: 2323
Path Distance: 2196
Destroyed Planner
Testing 16 Threads and 5,000 samples
Input file: /jet/home/ppareek/15418-Final-Project/maps/tests/density/Sparse.txt
Output file: /jet/home/ppareek/15418-Final-Project/paths/tests/density/Sparse_16_5000.txt
Start: 0,0
Goal: 999,999
Number of samples: 5000
Number of threads: 16
Loading map from file: /jet/home/ppareek/15418-Final-Project/maps/tests/density/Sparse.txt
Created Planner
Using Boost 1.66.0
Planning
Sampling 5000 points
Map width: 1000
Map height: 1000
Generation time: 440278ns
Connection time: 4.26406e+07ns
Starting A*
5001
We have Reached the Goal!!!
All threads exited
Path Found
Query time: 1.22307e+07ns
Time taken: 0.0553506 seconds
Path Nodes: 2325
Path Distance: 2206
Destroyed Planner
Testing 32 Threads and 5,000 samples
Input file: /jet/home/ppareek/15418-Final-Project/maps/tests/density/Sparse.txt
Output file: /jet/home/ppareek/15418-Final-Project/paths/tests/density/Sparse_32_5000.txt
Start: 0,0
Goal: 999,999
Number of samples: 5000
Number of threads: 32
Loading map from file: /jet/home/ppareek/15418-Final-Project/maps/tests/density/Sparse.txt
Created Planner
Using Boost 1.66.0
Planning
Sampling 5000 points
Map width: 1000
Map height: 1000
Generation time: 397507ns
Connection time: 3.67603e+07ns
Starting A*
5001
We have Reached the Goal!!!
All threads exited
Path Found
Query time: 8.34619e+06ns
Time taken: 0.0455451 seconds
Path Nodes: 2420
Path Distance: 2296
Destroyed Planner
Testing 64 Threads and 5,000 samples
Input file: /jet/home/ppareek/15418-Final-Project/maps/tests/density/Sparse.txt
Output file: /jet/home/ppareek/15418-Final-Project/paths/tests/density/Sparse_64_5000.txt
Start: 0,0
Goal: 999,999
Number of samples: 5000
Number of threads: 64
Loading map from file: /jet/home/ppareek/15418-Final-Project/maps/tests/density/Sparse.txt
Created Planner
Using Boost 1.66.0
Planning
Sampling 5000 points
Map width: 1000
Map height: 1000
Generation time: 445747ns
Connection time: 5.07879e+07ns
Starting A*
5001
We have Reached the Goal!!!
All threads exited
Path Found
Query time: 5.32316e+07ns
Time taken: 0.104617 seconds
Path Nodes: 2382
Path Distance: 2260
Destroyed Planner
Testing 128 Threads and 5,000 samples
Input file: /jet/home/ppareek/15418-Final-Project/maps/tests/density/Sparse.txt
Output file: /jet/home/ppareek/15418-Final-Project/paths/tests/density/Sparse_128_5000.txt
Start: 0,0
Goal: 999,999
Number of samples: 5000
Number of threads: 128
Loading map from file: /jet/home/ppareek/15418-Final-Project/maps/tests/density/Sparse.txt
Created Planner
Using Boost 1.66.0
Planning
Sampling 5000 points
Map width: 1000
Map height: 1000
Generation time: 453873ns
Connection time: 7.87174e+07ns
Starting A*
5001
We have Reached the Goal!!!
All threads exited
Path Found
Query time: 3.68003e+08ns
Time taken: 0.447324 seconds
Path Nodes: 2256
Path Distance: 2142
Destroyed Planner
--------------------------------------------------------------------------------
Testing 1 Threads and 10,000 samples
Input file: /jet/home/ppareek/15418-Final-Project/maps/tests/density/Sparse.txt
Output file: /jet/home/ppareek/15418-Final-Project/paths/tests/density/Sparse_1_10000.txt
Start: 0,0
Goal: 999,999
Number of samples: 10000
Number of threads: 1
Loading map from file: /jet/home/ppareek/15418-Final-Project/maps/tests/density/Sparse.txt
Created Planner
Using Boost 1.66.0
Planning
Sampling 10000 points
Map width: 1000
Map height: 1000
Generation time: 1.01808e+06ns
Connection time: 2.77118e+08ns
Starting A*
10001
We have Reached the Goal!!!
All threads exited
Path Found
Query time: 7.46286e+06ns
Time taken: 0.285656 seconds
Path Nodes: 2105
Path Distance: 1998
Destroyed Planner
Testing 2 Threads and 10,000 samples
Input file: /jet/home/ppareek/15418-Final-Project/maps/tests/density/Sparse.txt
Output file: /jet/home/ppareek/15418-Final-Project/paths/tests/density/Sparse_2_10000.txt
Start: 0,0
Goal: 999,999
Number of samples: 10000
Number of threads: 2
Loading map from file: /jet/home/ppareek/15418-Final-Project/maps/tests/density/Sparse.txt
Created Planner
Using Boost 1.66.0
Planning
Sampling 10000 points
Map width: 1000
Map height: 1000
Generation time: 918897ns
Connection time: 2.06841e+08ns
Starting A*
10001
We have Reached the Goal!!!
All threads exited
Path Found
Query time: 6.68495e+07ns
Time taken: 0.27467 seconds
Path Nodes: 2242
Path Distance: 2122
Destroyed Planner
Testing 4 Threads and 10,000 samples
Input file: /jet/home/ppareek/15418-Final-Project/maps/tests/density/Sparse.txt
Output file: /jet/home/ppareek/15418-Final-Project/paths/tests/density/Sparse_4_10000.txt
Start: 0,0
Goal: 999,999
Number of samples: 10000
Number of threads: 4
Loading map from file: /jet/home/ppareek/15418-Final-Project/maps/tests/density/Sparse.txt
Created Planner
Using Boost 1.66.0
Planning
Sampling 10000 points
Map width: 1000
Map height: 1000
Generation time: 846330ns
Connection time: 1.57421e+08ns
Starting A*
10001
We have Reached the Goal!!!
All threads exited
Path Found
Query time: 5.73195e+07ns
Time taken: 0.215629 seconds
Path Nodes: 2111
Path Distance: 1998
Destroyed Planner
Testing 8 Threads and 10,000 samples
Input file: /jet/home/ppareek/15418-Final-Project/maps/tests/density/Sparse.txt
Output file: /jet/home/ppareek/15418-Final-Project/paths/tests/density/Sparse_8_10000.txt
Start: 0,0
Goal: 999,999
Number of samples: 10000
Number of threads: 8
Loading map from file: /jet/home/ppareek/15418-Final-Project/maps/tests/density/Sparse.txt
Created Planner
Using Boost 1.66.0
Planning
Sampling 10000 points
Map width: 1000
Map height: 1000
Generation time: 851801ns
Connection time: 1.48154e+08ns
Starting A*
10001
We have Reached the Goal!!!
All threads exited
Path Found
Query time: 4.83792e+07ns
Time taken: 0.197431 seconds
Path Nodes: 2121
Path Distance: 2008
Destroyed Planner
Testing 16 Threads and 10,000 samples
Input file: /jet/home/ppareek/15418-Final-Project/maps/tests/density/Sparse.txt
Output file: /jet/home/ppareek/15418-Final-Project/paths/tests/density/Sparse_16_10000.txt
Start: 0,0
Goal: 999,999
Number of samples: 10000
Number of threads: 16
Loading map from file: /jet/home/ppareek/15418-Final-Project/maps/tests/density/Sparse.txt
Created Planner
Using Boost 1.66.0
Planning
Sampling 10000 points
Map width: 1000
Map height: 1000
Generation time: 807448ns
Connection time: 1.65633e+08ns
Starting A*
10001
We have Reached the Goal!!!
All threads exited
Path Found
Query time: 4.8719e+07ns
Time taken: 0.215199 seconds
Path Nodes: 2137
Path Distance: 2026
Destroyed Planner
Testing 32 Threads and 10,000 samples
Input file: /jet/home/ppareek/15418-Final-Project/maps/tests/density/Sparse.txt
Output file: /jet/home/ppareek/15418-Final-Project/paths/tests/density/Sparse_32_10000.txt
Start: 0,0
Goal: 999,999
Number of samples: 10000
Number of threads: 32
Loading map from file: /jet/home/ppareek/15418-Final-Project/maps/tests/density/Sparse.txt
Created Planner
Using Boost 1.66.0
Planning
Sampling 10000 points
Map width: 1000
Map height: 1000
Generation time: 852984ns
Connection time: 1.43461e+08ns
Starting A*
10001
We have Reached the Goal!!!
All threads exited
Path Found
Query time: 1.56489e+07ns
Time taken: 0.16001 seconds
Path Nodes: 2131
Path Distance: 2022
Destroyed Planner
Testing 64 Threads and 10,000 samples
Input file: /jet/home/ppareek/15418-Final-Project/maps/tests/density/Sparse.txt
Output file: /jet/home/ppareek/15418-Final-Project/paths/tests/density/Sparse_64_10000.txt
Start: 0,0
Goal: 999,999
Number of samples: 10000
Number of threads: 64
Loading map from file: /jet/home/ppareek/15418-Final-Project/maps/tests/density/Sparse.txt
Created Planner
Using Boost 1.66.0
Planning
Sampling 10000 points
Map width: 1000
Map height: 1000
Generation time: 844477ns
Connection time: 1.74782e+08ns
Starting A*
10001
We have Reached the Goal!!!
All threads exited
Path Found
Query time: 4.29428e+07ns
Time taken: 0.218649 seconds
Path Nodes: 2165
Path Distance: 2056
Destroyed Planner
Testing 128 Threads and 10,000 samples
Input file: /jet/home/ppareek/15418-Final-Project/maps/tests/density/Sparse.txt
Output file: /jet/home/ppareek/15418-Final-Project/paths/tests/density/Sparse_128_10000.txt
Start: 0,0
Goal: 999,999
Number of samples: 10000
Number of threads: 128
Loading map from file: /jet/home/ppareek/15418-Final-Project/maps/tests/density/Sparse.txt
Created Planner
Using Boost 1.66.0
Planning
Sampling 10000 points
Map width: 1000
Map height: 1000
Generation time: 863794ns
Connection time: 2.19517e+08ns
Starting A*
10001
We have Reached the Goal!!!
All threads exited
Path Found
Query time: 2.14777e+08ns
Time taken: 0.435499 seconds
Path Nodes: 2191
Path Distance: 2076
Destroyed Planner
--------------------------------------------------------------------------------
Testing 1 Threads and 20,000 samples
Input file: /jet/home/ppareek/15418-Final-Project/maps/tests/density/Sparse.txt
Output file: /jet/home/ppareek/15418-Final-Project/paths/tests/density/Sparse_1_20000.txt
Start: 0,0
Goal: 999,999
Number of samples: 20000
Number of threads: 1
Loading map from file: /jet/home/ppareek/15418-Final-Project/maps/tests/density/Sparse.txt
Created Planner
Using Boost 1.66.0
Planning
Sampling 20000 points
Map width: 1000
Map height: 1000
Generation time: 1.84758e+06ns
Connection time: 1.11016e+09ns
Starting A*
20001
We have Reached the Goal!!!
All threads exited
Path Found
Query time: 8.88564e+07ns
Time taken: 1.20094 seconds
Path Nodes: 2111
Path Distance: 1998
Destroyed Planner
Testing 2 Threads and 20,000 samples
Input file: /jet/home/ppareek/15418-Final-Project/maps/tests/density/Sparse.txt
Output file: /jet/home/ppareek/15418-Final-Project/paths/tests/density/Sparse_2_20000.txt
Start: 0,0
Goal: 999,999
Number of samples: 20000
Number of threads: 2
Loading map from file: /jet/home/ppareek/15418-Final-Project/maps/tests/density/Sparse.txt
Created Planner
Using Boost 1.66.0
Planning
Sampling 20000 points
Map width: 1000
Map height: 1000
Generation time: 1.68958e+06ns
Connection time: 8.52038e+08ns
Starting A*
20001
We have Reached the Goal!!!
All threads exited
Path Found
Query time: 2.17931e+08ns
Time taken: 1.07175 seconds
Path Nodes: 2110
Path Distance: 1998
Destroyed Planner
Testing 4 Threads and 20,000 samples
Input file: /jet/home/ppareek/15418-Final-Project/maps/tests/density/Sparse.txt
Output file: /jet/home/ppareek/15418-Final-Project/paths/tests/density/Sparse_4_20000.txt
Start: 0,0
Goal: 999,999
Number of samples: 20000
Number of threads: 4
Loading map from file: /jet/home/ppareek/15418-Final-Project/maps/tests/density/Sparse.txt
Created Planner
Using Boost 1.66.0
Planning
Sampling 20000 points
Map width: 1000
Map height: 1000
Generation time: 1.58916e+06ns
Connection time: 6.20776e+08ns
Starting A*
20001
We have Reached the Goal!!!
All threads exited
Path Found
Query time: 3.77432e+08ns
Time taken: 0.999877 seconds
Path Nodes: 2105
Path Distance: 1998
Destroyed Planner
Testing 8 Threads and 20,000 samples
Input file: /jet/home/ppareek/15418-Final-Project/maps/tests/density/Sparse.txt
Output file: /jet/home/ppareek/15418-Final-Project/paths/tests/density/Sparse_8_20000.txt
Start: 0,0
Goal: 999,999
Number of samples: 20000
Number of threads: 8
Loading map from file: /jet/home/ppareek/15418-Final-Project/maps/tests/density/Sparse.txt
Created Planner
Using Boost 1.66.0
Planning
Sampling 20000 points
Map width: 1000
Map height: 1000
Generation time: 1.67639e+06ns
Connection time: 5.80119e+08ns
Starting A*
20001
We have Reached the Goal!!!
All threads exited
Path Found
Query time: 2.6972e+08ns
Time taken: 0.851583 seconds
Path Nodes: 2109
Path Distance: 1998
Destroyed Planner
Testing 16 Threads and 20,000 samples
Input file: /jet/home/ppareek/15418-Final-Project/maps/tests/density/Sparse.txt
Output file: /jet/home/ppareek/15418-Final-Project/paths/tests/density/Sparse_16_20000.txt
Start: 0,0
Goal: 999,999
Number of samples: 20000
Number of threads: 16
Loading map from file: /jet/home/ppareek/15418-Final-Project/maps/tests/density/Sparse.txt
Created Planner
Using Boost 1.66.0
Planning
Sampling 20000 points
Map width: 1000
Map height: 1000
Generation time: 1.64433e+06ns
Connection time: 6.37016e+08ns
Starting A*
20001
We have Reached the Goal!!!
All threads exited
Path Found
Query time: 1.764e+08ns
Time taken: 0.815123 seconds
Path Nodes: 2110
Path Distance: 1998
Destroyed Planner
Testing 32 Threads and 20,000 samples
Input file: /jet/home/ppareek/15418-Final-Project/maps/tests/density/Sparse.txt
Output file: /jet/home/ppareek/15418-Final-Project/paths/tests/density/Sparse_32_20000.txt
Start: 0,0
Goal: 999,999
Number of samples: 20000
Number of threads: 32
Loading map from file: /jet/home/ppareek/15418-Final-Project/maps/tests/density/Sparse.txt
Created Planner
Using Boost 1.66.0
Planning
Sampling 20000 points
Map width: 1000
Map height: 1000
Generation time: 1.599e+06ns
Connection time: 5.47879e+08ns
Starting A*
20001
We have Reached the Goal!!!
All threads exited
Path Found
Query time: 1.11027e+08ns
Time taken: 0.660572 seconds
Path Nodes: 2106
Path Distance: 1998
Destroyed Planner
Testing 64 Threads and 20,000 samples
Input file: /jet/home/ppareek/15418-Final-Project/maps/tests/density/Sparse.txt
Output file: /jet/home/ppareek/15418-Final-Project/paths/tests/density/Sparse_64_20000.txt
Start: 0,0
Goal: 999,999
Number of samples: 20000
Number of threads: 64
Loading map from file: /jet/home/ppareek/15418-Final-Project/maps/tests/density/Sparse.txt
Created Planner
Using Boost 1.66.0
Planning
Sampling 20000 points
Map width: 1000
Map height: 1000
Generation time: 1.6362e+06ns
Connection time: 5.99286e+08ns
Starting A*
20001
We have Reached the Goal!!!
All threads exited
Path Found
Query time: 1.07721e+08ns
Time taken: 0.70878 seconds
Path Nodes: 2109
Path Distance: 1998
Destroyed Planner
Testing 128 Threads and 20,000 samples
Input file: /jet/home/ppareek/15418-Final-Project/maps/tests/density/Sparse.txt
Output file: /jet/home/ppareek/15418-Final-Project/paths/tests/density/Sparse_128_20000.txt
Start: 0,0
Goal: 999,999
Number of samples: 20000
Number of threads: 128
Loading map from file: /jet/home/ppareek/15418-Final-Project/maps/tests/density/Sparse.txt
Created Planner
Using Boost 1.66.0
Planning
Sampling 20000 points
Map width: 1000
Map height: 1000
Generation time: 1.68404e+06ns
Connection time: 8.05589e+08ns
Starting A*
20001
We have Reached the Goal!!!
All threads exited
Path Found
Query time: 1.06073e+08ns
Time taken: 0.913489 seconds
Path Nodes: 2106
Path Distance: 2000
Destroyed Planner
--------------------------------------------------------------------------------
Done.
